
---------- Begin Simulation Statistics ----------
simSeconds                                   0.007883                       # Number of seconds simulated (Second)
simTicks                                   7883350000                       # Number of ticks simulated (Tick)
finalTick                                  7883350000                       # Number of ticks from beginning of simulation (restored from checkpoints and never reset) (Tick)
simFreq                                  1000000000000                       # The number of ticks per simulated second ((Tick/Second))
hostSeconds                                     12.64                       # Real time elapsed on the host (Second)
hostTickRate                                623878807                       # The number of ticks simulated per host second (ticks/s) ((Tick/Second))
hostMemory                                     724736                       # Number of bytes of host memory used (Byte)
simInsts                                      4139980                       # Number of instructions simulated (Count)
simOps                                        7416711                       # Number of ops (including micro ops) simulated (Count)
hostInstRate                                   327615                       # Simulator instruction rate (inst/s) ((Count/Second))
hostOpRate                                     586917                       # Simulator op (including micro ops) rate (op/s) ((Count/Second))
system.clk_domain.clock                          1000                       # Clock period in ticks (Tick)
system.clk_domain.voltage_domain.voltage            1                       # Voltage in Volts (Volt)
system.cpu.numCycles                          7883351                       # Number of cpu cycles simulated (Cycle)
system.cpu.cpi                               1.904200                       # CPI: cycles per instruction (core level) ((Cycle/Count))
system.cpu.ipc                               0.525155                       # IPC: instructions per cycle (core level) ((Count/Cycle))
system.cpu.numWorkItemsStarted                      0                       # Number of work items this cpu started (Count)
system.cpu.numWorkItemsCompleted                    0                       # Number of work items this cpu completed (Count)
system.cpu.instsAdded                         9612866                       # Number of instructions added to the IQ (excludes non-spec) (Count)
system.cpu.nonSpecInstsAdded                   146466                       # Number of non-speculative instructions added to the IQ (Count)
system.cpu.instsIssued                        8414029                       # Number of instructions issued (Count)
system.cpu.squashedInstsIssued                  16851                       # Number of squashed instructions issued (Count)
system.cpu.squashedInstsExamined              2342615                       # Number of squashed instructions iterated over during squash; mainly for profiling (Count)
system.cpu.squashedOperandsExamined           6335474                       # Number of squashed operands that are examined and possibly removed from graph (Count)
system.cpu.squashedNonSpecRemoved               82626                       # Number of squashed non-spec instructions that were removed (Count)
system.cpu.numIssuedDist::samples             7859089                       # Number of insts issued each cycle (Count)
system.cpu.numIssuedDist::mean               1.070611                       # Number of insts issued each cycle (Count)
system.cpu.numIssuedDist::stdev              1.662608                       # Number of insts issued each cycle (Count)
system.cpu.numIssuedDist::underflows                0      0.00%      0.00% # Number of insts issued each cycle (Count)
system.cpu.numIssuedDist::0                   4864188     61.89%     61.89% # Number of insts issued each cycle (Count)
system.cpu.numIssuedDist::1                    647235      8.24%     70.13% # Number of insts issued each cycle (Count)
system.cpu.numIssuedDist::2                    786697     10.01%     80.14% # Number of insts issued each cycle (Count)
system.cpu.numIssuedDist::3                    794430     10.11%     90.25% # Number of insts issued each cycle (Count)
system.cpu.numIssuedDist::4                    320767      4.08%     94.33% # Number of insts issued each cycle (Count)
system.cpu.numIssuedDist::5                    236965      3.02%     97.34% # Number of insts issued each cycle (Count)
system.cpu.numIssuedDist::6                    146207      1.86%     99.20% # Number of insts issued each cycle (Count)
system.cpu.numIssuedDist::7                     35825      0.46%     99.66% # Number of insts issued each cycle (Count)
system.cpu.numIssuedDist::8                     26775      0.34%    100.00% # Number of insts issued each cycle (Count)
system.cpu.numIssuedDist::overflows                 0      0.00%    100.00% # Number of insts issued each cycle (Count)
system.cpu.numIssuedDist::min_value                 0                       # Number of insts issued each cycle (Count)
system.cpu.numIssuedDist::max_value                 8                       # Number of insts issued each cycle (Count)
system.cpu.numIssuedDist::total               7859089                       # Number of insts issued each cycle (Count)
system.cpu.statFuBusy::No_OpClass                   0      0.00%      0.00% # attempts to use FU when none available (Count)
system.cpu.statFuBusy::IntAlu                    3610     18.00%     18.00% # attempts to use FU when none available (Count)
system.cpu.statFuBusy::IntMult                      0      0.00%     18.00% # attempts to use FU when none available (Count)
system.cpu.statFuBusy::IntDiv                       0      0.00%     18.00% # attempts to use FU when none available (Count)
system.cpu.statFuBusy::FloatAdd                     0      0.00%     18.00% # attempts to use FU when none available (Count)
system.cpu.statFuBusy::FloatCmp                     0      0.00%     18.00% # attempts to use FU when none available (Count)
system.cpu.statFuBusy::FloatCvt                     0      0.00%     18.00% # attempts to use FU when none available (Count)
system.cpu.statFuBusy::FloatMult                    0      0.00%     18.00% # attempts to use FU when none available (Count)
system.cpu.statFuBusy::FloatMultAcc                 0      0.00%     18.00% # attempts to use FU when none available (Count)
system.cpu.statFuBusy::FloatDiv                     0      0.00%     18.00% # attempts to use FU when none available (Count)
system.cpu.statFuBusy::FloatMisc                    0      0.00%     18.00% # attempts to use FU when none available (Count)
system.cpu.statFuBusy::FloatSqrt                    0      0.00%     18.00% # attempts to use FU when none available (Count)
system.cpu.statFuBusy::SimdAdd                      0      0.00%     18.00% # attempts to use FU when none available (Count)
system.cpu.statFuBusy::SimdAddAcc                   0      0.00%     18.00% # attempts to use FU when none available (Count)
system.cpu.statFuBusy::SimdAlu                     11      0.05%     18.05% # attempts to use FU when none available (Count)
system.cpu.statFuBusy::SimdCmp                      0      0.00%     18.05% # attempts to use FU when none available (Count)
system.cpu.statFuBusy::SimdCvt                      2      0.01%     18.06% # attempts to use FU when none available (Count)
system.cpu.statFuBusy::SimdMisc                     1      0.00%     18.07% # attempts to use FU when none available (Count)
system.cpu.statFuBusy::SimdMult                     0      0.00%     18.07% # attempts to use FU when none available (Count)
system.cpu.statFuBusy::SimdMultAcc                  0      0.00%     18.07% # attempts to use FU when none available (Count)
system.cpu.statFuBusy::SimdMatMultAcc               0      0.00%     18.07% # attempts to use FU when none available (Count)
system.cpu.statFuBusy::SimdShift                    0      0.00%     18.07% # attempts to use FU when none available (Count)
system.cpu.statFuBusy::SimdShiftAcc                 0      0.00%     18.07% # attempts to use FU when none available (Count)
system.cpu.statFuBusy::SimdDiv                      0      0.00%     18.07% # attempts to use FU when none available (Count)
system.cpu.statFuBusy::SimdSqrt                     0      0.00%     18.07% # attempts to use FU when none available (Count)
system.cpu.statFuBusy::SimdFloatAdd                 0      0.00%     18.07% # attempts to use FU when none available (Count)
system.cpu.statFuBusy::SimdFloatAlu                 0      0.00%     18.07% # attempts to use FU when none available (Count)
system.cpu.statFuBusy::SimdFloatCmp                 0      0.00%     18.07% # attempts to use FU when none available (Count)
system.cpu.statFuBusy::SimdFloatCvt                 0      0.00%     18.07% # attempts to use FU when none available (Count)
system.cpu.statFuBusy::SimdFloatDiv                 0      0.00%     18.07% # attempts to use FU when none available (Count)
system.cpu.statFuBusy::SimdFloatMisc                0      0.00%     18.07% # attempts to use FU when none available (Count)
system.cpu.statFuBusy::SimdFloatMult                0      0.00%     18.07% # attempts to use FU when none available (Count)
system.cpu.statFuBusy::SimdFloatMultAcc             0      0.00%     18.07% # attempts to use FU when none available (Count)
system.cpu.statFuBusy::SimdFloatMatMultAcc            0      0.00%     18.07% # attempts to use FU when none available (Count)
system.cpu.statFuBusy::SimdFloatSqrt                0      0.00%     18.07% # attempts to use FU when none available (Count)
system.cpu.statFuBusy::SimdReduceAdd                0      0.00%     18.07% # attempts to use FU when none available (Count)
system.cpu.statFuBusy::SimdReduceAlu                0      0.00%     18.07% # attempts to use FU when none available (Count)
system.cpu.statFuBusy::SimdReduceCmp                0      0.00%     18.07% # attempts to use FU when none available (Count)
system.cpu.statFuBusy::SimdFloatReduceAdd            0      0.00%     18.07% # attempts to use FU when none available (Count)
system.cpu.statFuBusy::SimdFloatReduceCmp            0      0.00%     18.07% # attempts to use FU when none available (Count)
system.cpu.statFuBusy::SimdAes                      0      0.00%     18.07% # attempts to use FU when none available (Count)
system.cpu.statFuBusy::SimdAesMix                   0      0.00%     18.07% # attempts to use FU when none available (Count)
system.cpu.statFuBusy::SimdSha1Hash                 0      0.00%     18.07% # attempts to use FU when none available (Count)
system.cpu.statFuBusy::SimdSha1Hash2                0      0.00%     18.07% # attempts to use FU when none available (Count)
system.cpu.statFuBusy::SimdSha256Hash               0      0.00%     18.07% # attempts to use FU when none available (Count)
system.cpu.statFuBusy::SimdSha256Hash2              0      0.00%     18.07% # attempts to use FU when none available (Count)
system.cpu.statFuBusy::SimdShaSigma2                0      0.00%     18.07% # attempts to use FU when none available (Count)
system.cpu.statFuBusy::SimdShaSigma3                0      0.00%     18.07% # attempts to use FU when none available (Count)
system.cpu.statFuBusy::SimdPredAlu                  0      0.00%     18.07% # attempts to use FU when none available (Count)
system.cpu.statFuBusy::Matrix                       0      0.00%     18.07% # attempts to use FU when none available (Count)
system.cpu.statFuBusy::MatrixMov                    0      0.00%     18.07% # attempts to use FU when none available (Count)
system.cpu.statFuBusy::MatrixOP                     0      0.00%     18.07% # attempts to use FU when none available (Count)
system.cpu.statFuBusy::MemRead                  16121     80.37%     98.44% # attempts to use FU when none available (Count)
system.cpu.statFuBusy::MemWrite                   274      1.37%     99.81% # attempts to use FU when none available (Count)
system.cpu.statFuBusy::FloatMemRead                 4      0.02%     99.83% # attempts to use FU when none available (Count)
system.cpu.statFuBusy::FloatMemWrite               35      0.17%    100.00% # attempts to use FU when none available (Count)
system.cpu.statFuBusy::IprAccess                    0      0.00%    100.00% # attempts to use FU when none available (Count)
system.cpu.statFuBusy::InstPrefetch                 0      0.00%    100.00% # attempts to use FU when none available (Count)
system.cpu.statFuBusy::VectorUnitStrideLoad            0      0.00%    100.00% # attempts to use FU when none available (Count)
system.cpu.statFuBusy::VectorUnitStrideStore            0      0.00%    100.00% # attempts to use FU when none available (Count)
system.cpu.statFuBusy::VectorUnitStrideMaskLoad            0      0.00%    100.00% # attempts to use FU when none available (Count)
system.cpu.statFuBusy::VectorUnitStrideMaskStore            0      0.00%    100.00% # attempts to use FU when none available (Count)
system.cpu.statFuBusy::VectorStridedLoad            0      0.00%    100.00% # attempts to use FU when none available (Count)
system.cpu.statFuBusy::VectorStridedStore            0      0.00%    100.00% # attempts to use FU when none available (Count)
system.cpu.statFuBusy::VectorIndexedLoad            0      0.00%    100.00% # attempts to use FU when none available (Count)
system.cpu.statFuBusy::VectorIndexedStore            0      0.00%    100.00% # attempts to use FU when none available (Count)
system.cpu.statFuBusy::VectorUnitStrideFaultOnlyFirstLoad            0      0.00%    100.00% # attempts to use FU when none available (Count)
system.cpu.statFuBusy::VectorWholeRegisterLoad            0      0.00%    100.00% # attempts to use FU when none available (Count)
system.cpu.statFuBusy::VectorWholeRegisterStore            0      0.00%    100.00% # attempts to use FU when none available (Count)
system.cpu.statFuBusy::VectorIntegerArith            0      0.00%    100.00% # attempts to use FU when none available (Count)
system.cpu.statFuBusy::VectorFloatArith             0      0.00%    100.00% # attempts to use FU when none available (Count)
system.cpu.statFuBusy::VectorFloatConvert            0      0.00%    100.00% # attempts to use FU when none available (Count)
system.cpu.statFuBusy::VectorIntegerReduce            0      0.00%    100.00% # attempts to use FU when none available (Count)
system.cpu.statFuBusy::VectorFloatReduce            0      0.00%    100.00% # attempts to use FU when none available (Count)
system.cpu.statFuBusy::VectorMisc                   0      0.00%    100.00% # attempts to use FU when none available (Count)
system.cpu.statFuBusy::VectorIntegerExtension            0      0.00%    100.00% # attempts to use FU when none available (Count)
system.cpu.statFuBusy::VectorConfig                 0      0.00%    100.00% # attempts to use FU when none available (Count)
system.cpu.statIssuedInstType_0::No_OpClass          936      0.01%      0.01% # Number of instructions issued per FU type, per thread (Count)
system.cpu.statIssuedInstType_0::IntAlu       5912648     70.27%     70.28% # Number of instructions issued per FU type, per thread (Count)
system.cpu.statIssuedInstType_0::IntMult        23295      0.28%     70.56% # Number of instructions issued per FU type, per thread (Count)
system.cpu.statIssuedInstType_0::IntDiv          1980      0.02%     70.58% # Number of instructions issued per FU type, per thread (Count)
system.cpu.statIssuedInstType_0::FloatAdd          328      0.00%     70.59% # Number of instructions issued per FU type, per thread (Count)
system.cpu.statIssuedInstType_0::FloatCmp            0      0.00%     70.59% # Number of instructions issued per FU type, per thread (Count)
system.cpu.statIssuedInstType_0::FloatCvt            0      0.00%     70.59% # Number of instructions issued per FU type, per thread (Count)
system.cpu.statIssuedInstType_0::FloatMult            0      0.00%     70.59% # Number of instructions issued per FU type, per thread (Count)
system.cpu.statIssuedInstType_0::FloatMultAcc            0      0.00%     70.59% # Number of instructions issued per FU type, per thread (Count)
system.cpu.statIssuedInstType_0::FloatDiv            0      0.00%     70.59% # Number of instructions issued per FU type, per thread (Count)
system.cpu.statIssuedInstType_0::FloatMisc            0      0.00%     70.59% # Number of instructions issued per FU type, per thread (Count)
system.cpu.statIssuedInstType_0::FloatSqrt            0      0.00%     70.59% # Number of instructions issued per FU type, per thread (Count)
system.cpu.statIssuedInstType_0::SimdAdd            0      0.00%     70.59% # Number of instructions issued per FU type, per thread (Count)
system.cpu.statIssuedInstType_0::SimdAddAcc            0      0.00%     70.59% # Number of instructions issued per FU type, per thread (Count)
system.cpu.statIssuedInstType_0::SimdAlu         1630      0.02%     70.61% # Number of instructions issued per FU type, per thread (Count)
system.cpu.statIssuedInstType_0::SimdCmp            0      0.00%     70.61% # Number of instructions issued per FU type, per thread (Count)
system.cpu.statIssuedInstType_0::SimdCvt         1814      0.02%     70.63% # Number of instructions issued per FU type, per thread (Count)
system.cpu.statIssuedInstType_0::SimdMisc         3230      0.04%     70.67% # Number of instructions issued per FU type, per thread (Count)
system.cpu.statIssuedInstType_0::SimdMult            0      0.00%     70.67% # Number of instructions issued per FU type, per thread (Count)
system.cpu.statIssuedInstType_0::SimdMultAcc            0      0.00%     70.67% # Number of instructions issued per FU type, per thread (Count)
system.cpu.statIssuedInstType_0::SimdMatMultAcc            0      0.00%     70.67% # Number of instructions issued per FU type, per thread (Count)
system.cpu.statIssuedInstType_0::SimdShift            0      0.00%     70.67% # Number of instructions issued per FU type, per thread (Count)
system.cpu.statIssuedInstType_0::SimdShiftAcc            0      0.00%     70.67% # Number of instructions issued per FU type, per thread (Count)
system.cpu.statIssuedInstType_0::SimdDiv            0      0.00%     70.67% # Number of instructions issued per FU type, per thread (Count)
system.cpu.statIssuedInstType_0::SimdSqrt            0      0.00%     70.67% # Number of instructions issued per FU type, per thread (Count)
system.cpu.statIssuedInstType_0::SimdFloatAdd            0      0.00%     70.67% # Number of instructions issued per FU type, per thread (Count)
system.cpu.statIssuedInstType_0::SimdFloatAlu            0      0.00%     70.67% # Number of instructions issued per FU type, per thread (Count)
system.cpu.statIssuedInstType_0::SimdFloatCmp            0      0.00%     70.67% # Number of instructions issued per FU type, per thread (Count)
system.cpu.statIssuedInstType_0::SimdFloatCvt            0      0.00%     70.67% # Number of instructions issued per FU type, per thread (Count)
system.cpu.statIssuedInstType_0::SimdFloatDiv            0      0.00%     70.67% # Number of instructions issued per FU type, per thread (Count)
system.cpu.statIssuedInstType_0::SimdFloatMisc            0      0.00%     70.67% # Number of instructions issued per FU type, per thread (Count)
system.cpu.statIssuedInstType_0::SimdFloatMult            0      0.00%     70.67% # Number of instructions issued per FU type, per thread (Count)
system.cpu.statIssuedInstType_0::SimdFloatMultAcc            0      0.00%     70.67% # Number of instructions issued per FU type, per thread (Count)
system.cpu.statIssuedInstType_0::SimdFloatMatMultAcc            0      0.00%     70.67% # Number of instructions issued per FU type, per thread (Count)
system.cpu.statIssuedInstType_0::SimdFloatSqrt            0      0.00%     70.67% # Number of instructions issued per FU type, per thread (Count)
system.cpu.statIssuedInstType_0::SimdReduceAdd            0      0.00%     70.67% # Number of instructions issued per FU type, per thread (Count)
system.cpu.statIssuedInstType_0::SimdReduceAlu            0      0.00%     70.67% # Number of instructions issued per FU type, per thread (Count)
system.cpu.statIssuedInstType_0::SimdReduceCmp            0      0.00%     70.67% # Number of instructions issued per FU type, per thread (Count)
system.cpu.statIssuedInstType_0::SimdFloatReduceAdd            0      0.00%     70.67% # Number of instructions issued per FU type, per thread (Count)
system.cpu.statIssuedInstType_0::SimdFloatReduceCmp            0      0.00%     70.67% # Number of instructions issued per FU type, per thread (Count)
system.cpu.statIssuedInstType_0::SimdAes            0      0.00%     70.67% # Number of instructions issued per FU type, per thread (Count)
system.cpu.statIssuedInstType_0::SimdAesMix            0      0.00%     70.67% # Number of instructions issued per FU type, per thread (Count)
system.cpu.statIssuedInstType_0::SimdSha1Hash            0      0.00%     70.67% # Number of instructions issued per FU type, per thread (Count)
system.cpu.statIssuedInstType_0::SimdSha1Hash2            0      0.00%     70.67% # Number of instructions issued per FU type, per thread (Count)
system.cpu.statIssuedInstType_0::SimdSha256Hash            0      0.00%     70.67% # Number of instructions issued per FU type, per thread (Count)
system.cpu.statIssuedInstType_0::SimdSha256Hash2            0      0.00%     70.67% # Number of instructions issued per FU type, per thread (Count)
system.cpu.statIssuedInstType_0::SimdShaSigma2            0      0.00%     70.67% # Number of instructions issued per FU type, per thread (Count)
system.cpu.statIssuedInstType_0::SimdShaSigma3            0      0.00%     70.67% # Number of instructions issued per FU type, per thread (Count)
system.cpu.statIssuedInstType_0::SimdPredAlu            0      0.00%     70.67% # Number of instructions issued per FU type, per thread (Count)
system.cpu.statIssuedInstType_0::Matrix             0      0.00%     70.67% # Number of instructions issued per FU type, per thread (Count)
system.cpu.statIssuedInstType_0::MatrixMov            0      0.00%     70.67% # Number of instructions issued per FU type, per thread (Count)
system.cpu.statIssuedInstType_0::MatrixOP            0      0.00%     70.67% # Number of instructions issued per FU type, per thread (Count)
system.cpu.statIssuedInstType_0::MemRead      1582983     18.81%     89.48% # Number of instructions issued per FU type, per thread (Count)
system.cpu.statIssuedInstType_0::MemWrite       883984     10.51%     99.99% # Number of instructions issued per FU type, per thread (Count)
system.cpu.statIssuedInstType_0::FloatMemRead          938      0.01%    100.00% # Number of instructions issued per FU type, per thread (Count)
system.cpu.statIssuedInstType_0::FloatMemWrite          263      0.00%    100.00% # Number of instructions issued per FU type, per thread (Count)
system.cpu.statIssuedInstType_0::IprAccess            0      0.00%    100.00% # Number of instructions issued per FU type, per thread (Count)
system.cpu.statIssuedInstType_0::InstPrefetch            0      0.00%    100.00% # Number of instructions issued per FU type, per thread (Count)
system.cpu.statIssuedInstType_0::VectorUnitStrideLoad            0      0.00%    100.00% # Number of instructions issued per FU type, per thread (Count)
system.cpu.statIssuedInstType_0::VectorUnitStrideStore            0      0.00%    100.00% # Number of instructions issued per FU type, per thread (Count)
system.cpu.statIssuedInstType_0::VectorUnitStrideMaskLoad            0      0.00%    100.00% # Number of instructions issued per FU type, per thread (Count)
system.cpu.statIssuedInstType_0::VectorUnitStrideMaskStore            0      0.00%    100.00% # Number of instructions issued per FU type, per thread (Count)
system.cpu.statIssuedInstType_0::VectorStridedLoad            0      0.00%    100.00% # Number of instructions issued per FU type, per thread (Count)
system.cpu.statIssuedInstType_0::VectorStridedStore            0      0.00%    100.00% # Number of instructions issued per FU type, per thread (Count)
system.cpu.statIssuedInstType_0::VectorIndexedLoad            0      0.00%    100.00% # Number of instructions issued per FU type, per thread (Count)
system.cpu.statIssuedInstType_0::VectorIndexedStore            0      0.00%    100.00% # Number of instructions issued per FU type, per thread (Count)
system.cpu.statIssuedInstType_0::VectorUnitStrideFaultOnlyFirstLoad            0      0.00%    100.00% # Number of instructions issued per FU type, per thread (Count)
system.cpu.statIssuedInstType_0::VectorWholeRegisterLoad            0      0.00%    100.00% # Number of instructions issued per FU type, per thread (Count)
system.cpu.statIssuedInstType_0::VectorWholeRegisterStore            0      0.00%    100.00% # Number of instructions issued per FU type, per thread (Count)
system.cpu.statIssuedInstType_0::VectorIntegerArith            0      0.00%    100.00% # Number of instructions issued per FU type, per thread (Count)
system.cpu.statIssuedInstType_0::VectorFloatArith            0      0.00%    100.00% # Number of instructions issued per FU type, per thread (Count)
system.cpu.statIssuedInstType_0::VectorFloatConvert            0      0.00%    100.00% # Number of instructions issued per FU type, per thread (Count)
system.cpu.statIssuedInstType_0::VectorIntegerReduce            0      0.00%    100.00% # Number of instructions issued per FU type, per thread (Count)
system.cpu.statIssuedInstType_0::VectorFloatReduce            0      0.00%    100.00% # Number of instructions issued per FU type, per thread (Count)
system.cpu.statIssuedInstType_0::VectorMisc            0      0.00%    100.00% # Number of instructions issued per FU type, per thread (Count)
system.cpu.statIssuedInstType_0::VectorIntegerExtension            0      0.00%    100.00% # Number of instructions issued per FU type, per thread (Count)
system.cpu.statIssuedInstType_0::VectorConfig            0      0.00%    100.00% # Number of instructions issued per FU type, per thread (Count)
system.cpu.statIssuedInstType_0::total        8414029                       # Number of instructions issued per FU type, per thread (Count)
system.cpu.issueRate                         1.067316                       # Inst issue rate ((Count/Cycle))
system.cpu.fuBusy                               20058                       # FU busy when requested (Count)
system.cpu.fuBusyRate                        0.002384                       # FU busy rate (busy events/executed inst) ((Count/Count))
system.cpu.intInstQueueReads                 24705263                       # Number of integer instruction queue reads (Count)
system.cpu.intInstQueueWrites                12117865                       # Number of integer instruction queue writes (Count)
system.cpu.intInstQueueWakeupAccesses         8362978                       # Number of integer instruction queue wakeup accesses (Count)
system.cpu.fpInstQueueReads                     18793                       # Number of floating instruction queue reads (Count)
system.cpu.fpInstQueueWrites                     9692                       # Number of floating instruction queue writes (Count)
system.cpu.fpInstQueueWakeupAccesses             9286                       # Number of floating instruction queue wakeup accesses (Count)
system.cpu.vecInstQueueReads                        0                       # Number of vector instruction queue reads (Count)
system.cpu.vecInstQueueWrites                       0                       # Number of vector instruction queue writes (Count)
system.cpu.vecInstQueueWakeupAccesses               0                       # Number of vector instruction queue wakeup accesses (Count)
system.cpu.intAluAccesses                     8423757                       # Number of integer alu accesses (Count)
system.cpu.fpAluAccesses                         9394                       # Number of floating point alu accesses (Count)
system.cpu.vecAluAccesses                           0                       # Number of vector alu accesses (Count)
system.cpu.numSquashedInsts                     24101                       # Number of squashed instructions skipped in execute (Count)
system.cpu.numSwp                                   0                       # Number of swp insts executed (Count)
system.cpu.timesIdled                             622                       # Number of times that the entire CPU went into an idle state and unscheduled itself (Count)
system.cpu.idleCycles                           24262                       # Total number of cycles that the CPU has spent unscheduled due to idling (Cycle)
system.cpu.MemDepUnit__0.insertedLoads        1960407                       # Number of loads inserted to the mem dependence unit. (Count)
system.cpu.MemDepUnit__0.insertedStores       1152465                       # Number of stores inserted to the mem dependence unit. (Count)
system.cpu.MemDepUnit__0.conflictingLoads      1713775                       # Number of conflicting loads. (Count)
system.cpu.MemDepUnit__0.conflictingStores       693517                       # Number of conflicting stores. (Count)
system.cpu.MemDepUnit__1.insertedLoads              0                       # Number of loads inserted to the mem dependence unit. (Count)
system.cpu.MemDepUnit__1.insertedStores             0                       # Number of stores inserted to the mem dependence unit. (Count)
system.cpu.MemDepUnit__1.conflictingLoads            0                       # Number of conflicting loads. (Count)
system.cpu.MemDepUnit__1.conflictingStores            0                       # Number of conflicting stores. (Count)
system.cpu.MemDepUnit__2.insertedLoads              0                       # Number of loads inserted to the mem dependence unit. (Count)
system.cpu.MemDepUnit__2.insertedStores             0                       # Number of stores inserted to the mem dependence unit. (Count)
system.cpu.MemDepUnit__2.conflictingLoads            0                       # Number of conflicting loads. (Count)
system.cpu.MemDepUnit__2.conflictingStores            0                       # Number of conflicting stores. (Count)
system.cpu.MemDepUnit__3.insertedLoads              0                       # Number of loads inserted to the mem dependence unit. (Count)
system.cpu.MemDepUnit__3.insertedStores             0                       # Number of stores inserted to the mem dependence unit. (Count)
system.cpu.MemDepUnit__3.conflictingLoads            0                       # Number of conflicting loads. (Count)
system.cpu.MemDepUnit__3.conflictingStores            0                       # Number of conflicting stores. (Count)
system.cpu.branchPred.lookups                  820608                       # Number of BP lookups (Count)
system.cpu.branchPred.condPredicted            794036                       # Number of conditional branches predicted (Count)
system.cpu.branchPred.condIncorrect              6507                       # Number of conditional branches incorrect (Count)
system.cpu.branchPred.BTBLookups               733245                       # Number of BTB lookups (Count)
system.cpu.branchPred.BTBUpdates                 2823                       # Number of BTB updates (Count)
system.cpu.branchPred.BTBHits                  732679                       # Number of BTB hits (Count)
system.cpu.branchPred.BTBHitRatio            0.999228                       # BTB Hit Ratio (Ratio)
system.cpu.branchPred.RASUsed                    5871                       # Number of times the RAS was used to get a target. (Count)
system.cpu.branchPred.RASIncorrect                  2                       # Number of incorrect RAS predictions. (Count)
system.cpu.branchPred.indirectLookups            1200                       # Number of indirect predictor lookups. (Count)
system.cpu.branchPred.indirectHits                998                       # Number of indirect target hits. (Count)
system.cpu.branchPred.indirectMisses              202                       # Number of indirect misses. (Count)
system.cpu.branchPred.indirectMispredicted          246                       # Number of mispredicted indirect branches. (Count)
system.cpu.commit.commitSquashedInsts         2340184                       # The number of squashed insts skipped by commit (Count)
system.cpu.commit.commitNonSpecStalls           63840                       # The number of times commit has been forced to stall to communicate backwards (Count)
system.cpu.commit.branchMispredicts              6026                       # The number of times a branch was mispredicted (Count)
system.cpu.commit.numCommittedDist::samples      7550135                       # Number of insts commited each cycle (Count)
system.cpu.commit.numCommittedDist::mean     0.982328                       # Number of insts commited each cycle (Count)
system.cpu.commit.numCommittedDist::stdev     1.857894                       # Number of insts commited each cycle (Count)
system.cpu.commit.numCommittedDist::underflows            0      0.00%      0.00% # Number of insts commited each cycle (Count)
system.cpu.commit.numCommittedDist::0         5052456     66.92%     66.92% # Number of insts commited each cycle (Count)
system.cpu.commit.numCommittedDist::1          730555      9.68%     76.59% # Number of insts commited each cycle (Count)
system.cpu.commit.numCommittedDist::2          595377      7.89%     84.48% # Number of insts commited each cycle (Count)
system.cpu.commit.numCommittedDist::3          572535      7.58%     92.06% # Number of insts commited each cycle (Count)
system.cpu.commit.numCommittedDist::4           14200      0.19%     92.25% # Number of insts commited each cycle (Count)
system.cpu.commit.numCommittedDist::5          281105      3.72%     95.97% # Number of insts commited each cycle (Count)
system.cpu.commit.numCommittedDist::6           56985      0.75%     96.73% # Number of insts commited each cycle (Count)
system.cpu.commit.numCommittedDist::7            1814      0.02%     96.75% # Number of insts commited each cycle (Count)
system.cpu.commit.numCommittedDist::8          245108      3.25%    100.00% # Number of insts commited each cycle (Count)
system.cpu.commit.numCommittedDist::overflows            0      0.00%    100.00% # Number of insts commited each cycle (Count)
system.cpu.commit.numCommittedDist::min_value            0                       # Number of insts commited each cycle (Count)
system.cpu.commit.numCommittedDist::max_value            8                       # Number of insts commited each cycle (Count)
system.cpu.commit.numCommittedDist::total      7550135                       # Number of insts commited each cycle (Count)
system.cpu.commit.amos                              0                       # Number of atomic instructions committed (Count)
system.cpu.commit.membars                       63840                       # Number of memory barriers committed (Count)
system.cpu.commit.functionCalls                  4530                       # Number of function calls committed. (Count)
system.cpu.commit.committedInstType_0::No_OpClass          629      0.01%      0.01% # Class of committed instruction (Count)
system.cpu.commit.committedInstType_0::IntAlu      5072776     68.40%     68.41% # Class of committed instruction (Count)
system.cpu.commit.committedInstType_0::IntMult        22927      0.31%     68.71% # Class of committed instruction (Count)
system.cpu.commit.committedInstType_0::IntDiv         1715      0.02%     68.74% # Class of committed instruction (Count)
system.cpu.commit.committedInstType_0::FloatAdd          328      0.00%     68.74% # Class of committed instruction (Count)
system.cpu.commit.committedInstType_0::FloatCmp            0      0.00%     68.74% # Class of committed instruction (Count)
system.cpu.commit.committedInstType_0::FloatCvt            0      0.00%     68.74% # Class of committed instruction (Count)
system.cpu.commit.committedInstType_0::FloatMult            0      0.00%     68.74% # Class of committed instruction (Count)
system.cpu.commit.committedInstType_0::FloatMultAcc            0      0.00%     68.74% # Class of committed instruction (Count)
system.cpu.commit.committedInstType_0::FloatDiv            0      0.00%     68.74% # Class of committed instruction (Count)
system.cpu.commit.committedInstType_0::FloatMisc            0      0.00%     68.74% # Class of committed instruction (Count)
system.cpu.commit.committedInstType_0::FloatSqrt            0      0.00%     68.74% # Class of committed instruction (Count)
system.cpu.commit.committedInstType_0::SimdAdd            0      0.00%     68.74% # Class of committed instruction (Count)
system.cpu.commit.committedInstType_0::SimdAddAcc            0      0.00%     68.74% # Class of committed instruction (Count)
system.cpu.commit.committedInstType_0::SimdAlu         1602      0.02%     68.76% # Class of committed instruction (Count)
system.cpu.commit.committedInstType_0::SimdCmp            0      0.00%     68.76% # Class of committed instruction (Count)
system.cpu.commit.committedInstType_0::SimdCvt         1814      0.02%     68.79% # Class of committed instruction (Count)
system.cpu.commit.committedInstType_0::SimdMisc         3230      0.04%     68.83% # Class of committed instruction (Count)
system.cpu.commit.committedInstType_0::SimdMult            0      0.00%     68.83% # Class of committed instruction (Count)
system.cpu.commit.committedInstType_0::SimdMultAcc            0      0.00%     68.83% # Class of committed instruction (Count)
system.cpu.commit.committedInstType_0::SimdMatMultAcc            0      0.00%     68.83% # Class of committed instruction (Count)
system.cpu.commit.committedInstType_0::SimdShift            0      0.00%     68.83% # Class of committed instruction (Count)
system.cpu.commit.committedInstType_0::SimdShiftAcc            0      0.00%     68.83% # Class of committed instruction (Count)
system.cpu.commit.committedInstType_0::SimdDiv            0      0.00%     68.83% # Class of committed instruction (Count)
system.cpu.commit.committedInstType_0::SimdSqrt            0      0.00%     68.83% # Class of committed instruction (Count)
system.cpu.commit.committedInstType_0::SimdFloatAdd            0      0.00%     68.83% # Class of committed instruction (Count)
system.cpu.commit.committedInstType_0::SimdFloatAlu            0      0.00%     68.83% # Class of committed instruction (Count)
system.cpu.commit.committedInstType_0::SimdFloatCmp            0      0.00%     68.83% # Class of committed instruction (Count)
system.cpu.commit.committedInstType_0::SimdFloatCvt            0      0.00%     68.83% # Class of committed instruction (Count)
system.cpu.commit.committedInstType_0::SimdFloatDiv            0      0.00%     68.83% # Class of committed instruction (Count)
system.cpu.commit.committedInstType_0::SimdFloatMisc            0      0.00%     68.83% # Class of committed instruction (Count)
system.cpu.commit.committedInstType_0::SimdFloatMult            0      0.00%     68.83% # Class of committed instruction (Count)
system.cpu.commit.committedInstType_0::SimdFloatMultAcc            0      0.00%     68.83% # Class of committed instruction (Count)
system.cpu.commit.committedInstType_0::SimdFloatMatMultAcc            0      0.00%     68.83% # Class of committed instruction (Count)
system.cpu.commit.committedInstType_0::SimdFloatSqrt            0      0.00%     68.83% # Class of committed instruction (Count)
system.cpu.commit.committedInstType_0::SimdReduceAdd            0      0.00%     68.83% # Class of committed instruction (Count)
system.cpu.commit.committedInstType_0::SimdReduceAlu            0      0.00%     68.83% # Class of committed instruction (Count)
system.cpu.commit.committedInstType_0::SimdReduceCmp            0      0.00%     68.83% # Class of committed instruction (Count)
system.cpu.commit.committedInstType_0::SimdFloatReduceAdd            0      0.00%     68.83% # Class of committed instruction (Count)
system.cpu.commit.committedInstType_0::SimdFloatReduceCmp            0      0.00%     68.83% # Class of committed instruction (Count)
system.cpu.commit.committedInstType_0::SimdAes            0      0.00%     68.83% # Class of committed instruction (Count)
system.cpu.commit.committedInstType_0::SimdAesMix            0      0.00%     68.83% # Class of committed instruction (Count)
system.cpu.commit.committedInstType_0::SimdSha1Hash            0      0.00%     68.83% # Class of committed instruction (Count)
system.cpu.commit.committedInstType_0::SimdSha1Hash2            0      0.00%     68.83% # Class of committed instruction (Count)
system.cpu.commit.committedInstType_0::SimdSha256Hash            0      0.00%     68.83% # Class of committed instruction (Count)
system.cpu.commit.committedInstType_0::SimdSha256Hash2            0      0.00%     68.83% # Class of committed instruction (Count)
system.cpu.commit.committedInstType_0::SimdShaSigma2            0      0.00%     68.83% # Class of committed instruction (Count)
system.cpu.commit.committedInstType_0::SimdShaSigma3            0      0.00%     68.83% # Class of committed instruction (Count)
system.cpu.commit.committedInstType_0::SimdPredAlu            0      0.00%     68.83% # Class of committed instruction (Count)
system.cpu.commit.committedInstType_0::Matrix            0      0.00%     68.83% # Class of committed instruction (Count)
system.cpu.commit.committedInstType_0::MatrixMov            0      0.00%     68.83% # Class of committed instruction (Count)
system.cpu.commit.committedInstType_0::MatrixOP            0      0.00%     68.83% # Class of committed instruction (Count)
system.cpu.commit.committedInstType_0::MemRead      1465287     19.76%     88.59% # Class of committed instruction (Count)
system.cpu.commit.committedInstType_0::MemWrite       845321     11.40%     99.99% # Class of committed instruction (Count)
system.cpu.commit.committedInstType_0::FloatMemRead          922      0.01%    100.00% # Class of committed instruction (Count)
system.cpu.commit.committedInstType_0::FloatMemWrite          160      0.00%    100.00% # Class of committed instruction (Count)
system.cpu.commit.committedInstType_0::IprAccess            0      0.00%    100.00% # Class of committed instruction (Count)
system.cpu.commit.committedInstType_0::InstPrefetch            0      0.00%    100.00% # Class of committed instruction (Count)
system.cpu.commit.committedInstType_0::VectorUnitStrideLoad            0      0.00%    100.00% # Class of committed instruction (Count)
system.cpu.commit.committedInstType_0::VectorUnitStrideStore            0      0.00%    100.00% # Class of committed instruction (Count)
system.cpu.commit.committedInstType_0::VectorUnitStrideMaskLoad            0      0.00%    100.00% # Class of committed instruction (Count)
system.cpu.commit.committedInstType_0::VectorUnitStrideMaskStore            0      0.00%    100.00% # Class of committed instruction (Count)
system.cpu.commit.committedInstType_0::VectorStridedLoad            0      0.00%    100.00% # Class of committed instruction (Count)
system.cpu.commit.committedInstType_0::VectorStridedStore            0      0.00%    100.00% # Class of committed instruction (Count)
system.cpu.commit.committedInstType_0::VectorIndexedLoad            0      0.00%    100.00% # Class of committed instruction (Count)
system.cpu.commit.committedInstType_0::VectorIndexedStore            0      0.00%    100.00% # Class of committed instruction (Count)
system.cpu.commit.committedInstType_0::VectorUnitStrideFaultOnlyFirstLoad            0      0.00%    100.00% # Class of committed instruction (Count)
system.cpu.commit.committedInstType_0::VectorWholeRegisterLoad            0      0.00%    100.00% # Class of committed instruction (Count)
system.cpu.commit.committedInstType_0::VectorWholeRegisterStore            0      0.00%    100.00% # Class of committed instruction (Count)
system.cpu.commit.committedInstType_0::VectorIntegerArith            0      0.00%    100.00% # Class of committed instruction (Count)
system.cpu.commit.committedInstType_0::VectorFloatArith            0      0.00%    100.00% # Class of committed instruction (Count)
system.cpu.commit.committedInstType_0::VectorFloatConvert            0      0.00%    100.00% # Class of committed instruction (Count)
system.cpu.commit.committedInstType_0::VectorIntegerReduce            0      0.00%    100.00% # Class of committed instruction (Count)
system.cpu.commit.committedInstType_0::VectorFloatReduce            0      0.00%    100.00% # Class of committed instruction (Count)
system.cpu.commit.committedInstType_0::VectorMisc            0      0.00%    100.00% # Class of committed instruction (Count)
system.cpu.commit.committedInstType_0::VectorIntegerExtension            0      0.00%    100.00% # Class of committed instruction (Count)
system.cpu.commit.committedInstType_0::VectorConfig            0      0.00%    100.00% # Class of committed instruction (Count)
system.cpu.commit.committedInstType_0::total      7416711                       # Class of committed instruction (Count)
system.cpu.commit.commitEligibleSamples        245108                       # number cycles where commit BW limit reached (Cycle)
system.cpu.commitStats0.numInsts              4139980                       # Number of instructions committed (thread level) (Count)
system.cpu.commitStats0.numOps                7416711                       # Number of ops (including micro ops) committed (thread level) (Count)
system.cpu.commitStats0.numInstsNotNOP        4139980                       # Number of instructions committed excluding NOPs or prefetches (Count)
system.cpu.commitStats0.numOpsNotNOP          7416711                       # Number of Ops (including micro ops) Simulated (Count)
system.cpu.commitStats0.cpi                  1.904200                       # CPI: cycles per instruction (thread level) ((Cycle/Count))
system.cpu.commitStats0.ipc                  0.525155                       # IPC: instructions per cycle (thread level) ((Count/Cycle))
system.cpu.commitStats0.numMemRefs            2311690                       # Number of memory references committed (Count)
system.cpu.commitStats0.numFpInsts               9194                       # Number of float instructions (Count)
system.cpu.commitStats0.numIntInsts           7344452                       # Number of integer instructions (Count)
system.cpu.commitStats0.numLoadInsts          1466209                       # Number of load instructions (Count)
system.cpu.commitStats0.numStoreInsts          845481                       # Number of store instructions (Count)
system.cpu.commitStats0.numVecInsts                 0                       # Number of vector instructions (Count)
system.cpu.commitStats0.committedInstType::No_OpClass          629      0.01%      0.01% # Class of committed instruction. (Count)
system.cpu.commitStats0.committedInstType::IntAlu      5072776     68.40%     68.41% # Class of committed instruction. (Count)
system.cpu.commitStats0.committedInstType::IntMult        22927      0.31%     68.71% # Class of committed instruction. (Count)
system.cpu.commitStats0.committedInstType::IntDiv         1715      0.02%     68.74% # Class of committed instruction. (Count)
system.cpu.commitStats0.committedInstType::FloatAdd          328      0.00%     68.74% # Class of committed instruction. (Count)
system.cpu.commitStats0.committedInstType::FloatCmp            0      0.00%     68.74% # Class of committed instruction. (Count)
system.cpu.commitStats0.committedInstType::FloatCvt            0      0.00%     68.74% # Class of committed instruction. (Count)
system.cpu.commitStats0.committedInstType::FloatMult            0      0.00%     68.74% # Class of committed instruction. (Count)
system.cpu.commitStats0.committedInstType::FloatMultAcc            0      0.00%     68.74% # Class of committed instruction. (Count)
system.cpu.commitStats0.committedInstType::FloatDiv            0      0.00%     68.74% # Class of committed instruction. (Count)
system.cpu.commitStats0.committedInstType::FloatMisc            0      0.00%     68.74% # Class of committed instruction. (Count)
system.cpu.commitStats0.committedInstType::FloatSqrt            0      0.00%     68.74% # Class of committed instruction. (Count)
system.cpu.commitStats0.committedInstType::SimdAdd            0      0.00%     68.74% # Class of committed instruction. (Count)
system.cpu.commitStats0.committedInstType::SimdAddAcc            0      0.00%     68.74% # Class of committed instruction. (Count)
system.cpu.commitStats0.committedInstType::SimdAlu         1602      0.02%     68.76% # Class of committed instruction. (Count)
system.cpu.commitStats0.committedInstType::SimdCmp            0      0.00%     68.76% # Class of committed instruction. (Count)
system.cpu.commitStats0.committedInstType::SimdCvt         1814      0.02%     68.79% # Class of committed instruction. (Count)
system.cpu.commitStats0.committedInstType::SimdMisc         3230      0.04%     68.83% # Class of committed instruction. (Count)
system.cpu.commitStats0.committedInstType::SimdMult            0      0.00%     68.83% # Class of committed instruction. (Count)
system.cpu.commitStats0.committedInstType::SimdMultAcc            0      0.00%     68.83% # Class of committed instruction. (Count)
system.cpu.commitStats0.committedInstType::SimdMatMultAcc            0      0.00%     68.83% # Class of committed instruction. (Count)
system.cpu.commitStats0.committedInstType::SimdShift            0      0.00%     68.83% # Class of committed instruction. (Count)
system.cpu.commitStats0.committedInstType::SimdShiftAcc            0      0.00%     68.83% # Class of committed instruction. (Count)
system.cpu.commitStats0.committedInstType::SimdDiv            0      0.00%     68.83% # Class of committed instruction. (Count)
system.cpu.commitStats0.committedInstType::SimdSqrt            0      0.00%     68.83% # Class of committed instruction. (Count)
system.cpu.commitStats0.committedInstType::SimdFloatAdd            0      0.00%     68.83% # Class of committed instruction. (Count)
system.cpu.commitStats0.committedInstType::SimdFloatAlu            0      0.00%     68.83% # Class of committed instruction. (Count)
system.cpu.commitStats0.committedInstType::SimdFloatCmp            0      0.00%     68.83% # Class of committed instruction. (Count)
system.cpu.commitStats0.committedInstType::SimdFloatCvt            0      0.00%     68.83% # Class of committed instruction. (Count)
system.cpu.commitStats0.committedInstType::SimdFloatDiv            0      0.00%     68.83% # Class of committed instruction. (Count)
system.cpu.commitStats0.committedInstType::SimdFloatMisc            0      0.00%     68.83% # Class of committed instruction. (Count)
system.cpu.commitStats0.committedInstType::SimdFloatMult            0      0.00%     68.83% # Class of committed instruction. (Count)
system.cpu.commitStats0.committedInstType::SimdFloatMultAcc            0      0.00%     68.83% # Class of committed instruction. (Count)
system.cpu.commitStats0.committedInstType::SimdFloatMatMultAcc            0      0.00%     68.83% # Class of committed instruction. (Count)
system.cpu.commitStats0.committedInstType::SimdFloatSqrt            0      0.00%     68.83% # Class of committed instruction. (Count)
system.cpu.commitStats0.committedInstType::SimdReduceAdd            0      0.00%     68.83% # Class of committed instruction. (Count)
system.cpu.commitStats0.committedInstType::SimdReduceAlu            0      0.00%     68.83% # Class of committed instruction. (Count)
system.cpu.commitStats0.committedInstType::SimdReduceCmp            0      0.00%     68.83% # Class of committed instruction. (Count)
system.cpu.commitStats0.committedInstType::SimdFloatReduceAdd            0      0.00%     68.83% # Class of committed instruction. (Count)
system.cpu.commitStats0.committedInstType::SimdFloatReduceCmp            0      0.00%     68.83% # Class of committed instruction. (Count)
system.cpu.commitStats0.committedInstType::SimdAes            0      0.00%     68.83% # Class of committed instruction. (Count)
system.cpu.commitStats0.committedInstType::SimdAesMix            0      0.00%     68.83% # Class of committed instruction. (Count)
system.cpu.commitStats0.committedInstType::SimdSha1Hash            0      0.00%     68.83% # Class of committed instruction. (Count)
system.cpu.commitStats0.committedInstType::SimdSha1Hash2            0      0.00%     68.83% # Class of committed instruction. (Count)
system.cpu.commitStats0.committedInstType::SimdSha256Hash            0      0.00%     68.83% # Class of committed instruction. (Count)
system.cpu.commitStats0.committedInstType::SimdSha256Hash2            0      0.00%     68.83% # Class of committed instruction. (Count)
system.cpu.commitStats0.committedInstType::SimdShaSigma2            0      0.00%     68.83% # Class of committed instruction. (Count)
system.cpu.commitStats0.committedInstType::SimdShaSigma3            0      0.00%     68.83% # Class of committed instruction. (Count)
system.cpu.commitStats0.committedInstType::SimdPredAlu            0      0.00%     68.83% # Class of committed instruction. (Count)
system.cpu.commitStats0.committedInstType::Matrix            0      0.00%     68.83% # Class of committed instruction. (Count)
system.cpu.commitStats0.committedInstType::MatrixMov            0      0.00%     68.83% # Class of committed instruction. (Count)
system.cpu.commitStats0.committedInstType::MatrixOP            0      0.00%     68.83% # Class of committed instruction. (Count)
system.cpu.commitStats0.committedInstType::MemRead      1465287     19.76%     88.59% # Class of committed instruction. (Count)
system.cpu.commitStats0.committedInstType::MemWrite       845321     11.40%     99.99% # Class of committed instruction. (Count)
system.cpu.commitStats0.committedInstType::FloatMemRead          922      0.01%    100.00% # Class of committed instruction. (Count)
system.cpu.commitStats0.committedInstType::FloatMemWrite          160      0.00%    100.00% # Class of committed instruction. (Count)
system.cpu.commitStats0.committedInstType::IprAccess            0      0.00%    100.00% # Class of committed instruction. (Count)
system.cpu.commitStats0.committedInstType::InstPrefetch            0      0.00%    100.00% # Class of committed instruction. (Count)
system.cpu.commitStats0.committedInstType::VectorUnitStrideLoad            0      0.00%    100.00% # Class of committed instruction. (Count)
system.cpu.commitStats0.committedInstType::VectorUnitStrideStore            0      0.00%    100.00% # Class of committed instruction. (Count)
system.cpu.commitStats0.committedInstType::VectorUnitStrideMaskLoad            0      0.00%    100.00% # Class of committed instruction. (Count)
system.cpu.commitStats0.committedInstType::VectorUnitStrideMaskStore            0      0.00%    100.00% # Class of committed instruction. (Count)
system.cpu.commitStats0.committedInstType::VectorStridedLoad            0      0.00%    100.00% # Class of committed instruction. (Count)
system.cpu.commitStats0.committedInstType::VectorStridedStore            0      0.00%    100.00% # Class of committed instruction. (Count)
system.cpu.commitStats0.committedInstType::VectorIndexedLoad            0      0.00%    100.00% # Class of committed instruction. (Count)
system.cpu.commitStats0.committedInstType::VectorIndexedStore            0      0.00%    100.00% # Class of committed instruction. (Count)
system.cpu.commitStats0.committedInstType::VectorUnitStrideFaultOnlyFirstLoad            0      0.00%    100.00% # Class of committed instruction. (Count)
system.cpu.commitStats0.committedInstType::VectorWholeRegisterLoad            0      0.00%    100.00% # Class of committed instruction. (Count)
system.cpu.commitStats0.committedInstType::VectorWholeRegisterStore            0      0.00%    100.00% # Class of committed instruction. (Count)
system.cpu.commitStats0.committedInstType::VectorIntegerArith            0      0.00%    100.00% # Class of committed instruction. (Count)
system.cpu.commitStats0.committedInstType::VectorFloatArith            0      0.00%    100.00% # Class of committed instruction. (Count)
system.cpu.commitStats0.committedInstType::VectorFloatConvert            0      0.00%    100.00% # Class of committed instruction. (Count)
system.cpu.commitStats0.committedInstType::VectorIntegerReduce            0      0.00%    100.00% # Class of committed instruction. (Count)
system.cpu.commitStats0.committedInstType::VectorFloatReduce            0      0.00%    100.00% # Class of committed instruction. (Count)
system.cpu.commitStats0.committedInstType::VectorMisc            0      0.00%    100.00% # Class of committed instruction. (Count)
system.cpu.commitStats0.committedInstType::VectorIntegerExtension            0      0.00%    100.00% # Class of committed instruction. (Count)
system.cpu.commitStats0.committedInstType::VectorConfig            0      0.00%    100.00% # Class of committed instruction. (Count)
system.cpu.commitStats0.committedInstType::total      7416711                       # Class of committed instruction. (Count)
system.cpu.commitStats0.committedControl::IsControl       584675                       # Class of control type instructions committed (Count)
system.cpu.commitStats0.committedControl::IsDirectControl       579126                       # Class of control type instructions committed (Count)
system.cpu.commitStats0.committedControl::IsIndirectControl         5549                       # Class of control type instructions committed (Count)
system.cpu.commitStats0.committedControl::IsCondControl       562938                       # Class of control type instructions committed (Count)
system.cpu.commitStats0.committedControl::IsUncondControl        21737                       # Class of control type instructions committed (Count)
system.cpu.commitStats0.committedControl::IsCall         4530                       # Class of control type instructions committed (Count)
system.cpu.commitStats0.committedControl::IsReturn         4525                       # Class of control type instructions committed (Count)
system.cpu.dcache.demandHits::cpu.data        1189568                       # number of demand (read+write) hits (Count)
system.cpu.dcache.demandHits::total           1189568                       # number of demand (read+write) hits (Count)
system.cpu.dcache.overallHits::cpu.data       1189568                       # number of overall hits (Count)
system.cpu.dcache.overallHits::total          1189568                       # number of overall hits (Count)
system.cpu.dcache.demandMisses::cpu.data        27240                       # number of demand (read+write) misses (Count)
system.cpu.dcache.demandMisses::total           27240                       # number of demand (read+write) misses (Count)
system.cpu.dcache.overallMisses::cpu.data        27240                       # number of overall misses (Count)
system.cpu.dcache.overallMisses::total          27240                       # number of overall misses (Count)
system.cpu.dcache.demandMissLatency::cpu.data   2598453999                       # number of demand (read+write) miss ticks (Tick)
system.cpu.dcache.demandMissLatency::total   2598453999                       # number of demand (read+write) miss ticks (Tick)
system.cpu.dcache.overallMissLatency::cpu.data   2598453999                       # number of overall miss ticks (Tick)
system.cpu.dcache.overallMissLatency::total   2598453999                       # number of overall miss ticks (Tick)
system.cpu.dcache.demandAccesses::cpu.data      1216808                       # number of demand (read+write) accesses (Count)
system.cpu.dcache.demandAccesses::total       1216808                       # number of demand (read+write) accesses (Count)
system.cpu.dcache.overallAccesses::cpu.data      1216808                       # number of overall (read+write) accesses (Count)
system.cpu.dcache.overallAccesses::total      1216808                       # number of overall (read+write) accesses (Count)
system.cpu.dcache.demandMissRate::cpu.data     0.022386                       # miss rate for demand accesses (Ratio)
system.cpu.dcache.demandMissRate::total      0.022386                       # miss rate for demand accesses (Ratio)
system.cpu.dcache.overallMissRate::cpu.data     0.022386                       # miss rate for overall accesses (Ratio)
system.cpu.dcache.overallMissRate::total     0.022386                       # miss rate for overall accesses (Ratio)
system.cpu.dcache.demandAvgMissLatency::cpu.data 95391.115969                       # average overall miss latency in ticks ((Tick/Count))
system.cpu.dcache.demandAvgMissLatency::total 95391.115969                       # average overall miss latency in ticks ((Tick/Count))
system.cpu.dcache.overallAvgMissLatency::cpu.data 95391.115969                       # average overall miss latency ((Tick/Count))
system.cpu.dcache.overallAvgMissLatency::total 95391.115969                       # average overall miss latency ((Tick/Count))
system.cpu.dcache.blockedCycles::no_mshrs          124                       # number of cycles access was blocked (Cycle)
system.cpu.dcache.blockedCycles::no_targets            0                       # number of cycles access was blocked (Cycle)
system.cpu.dcache.blockedCauses::no_mshrs            4                       # number of times access was blocked (Count)
system.cpu.dcache.blockedCauses::no_targets            0                       # number of times access was blocked (Count)
system.cpu.dcache.avgBlocked::no_mshrs             31                       # average number of cycles each access was blocked ((Cycle/Count))
system.cpu.dcache.avgBlocked::no_targets          nan                       # average number of cycles each access was blocked ((Cycle/Count))
system.cpu.dcache.writebacks::writebacks         1692                       # number of writebacks (Count)
system.cpu.dcache.writebacks::total              1692                       # number of writebacks (Count)
system.cpu.dcache.demandMshrHits::cpu.data         1383                       # number of demand (read+write) MSHR hits (Count)
system.cpu.dcache.demandMshrHits::total          1383                       # number of demand (read+write) MSHR hits (Count)
system.cpu.dcache.overallMshrHits::cpu.data         1383                       # number of overall MSHR hits (Count)
system.cpu.dcache.overallMshrHits::total         1383                       # number of overall MSHR hits (Count)
system.cpu.dcache.demandMshrMisses::cpu.data        25857                       # number of demand (read+write) MSHR misses (Count)
system.cpu.dcache.demandMshrMisses::total        25857                       # number of demand (read+write) MSHR misses (Count)
system.cpu.dcache.overallMshrMisses::cpu.data        25857                       # number of overall MSHR misses (Count)
system.cpu.dcache.overallMshrMisses::total        25857                       # number of overall MSHR misses (Count)
system.cpu.dcache.demandMshrMissLatency::cpu.data   2517500000                       # number of demand (read+write) MSHR miss ticks (Tick)
system.cpu.dcache.demandMshrMissLatency::total   2517500000                       # number of demand (read+write) MSHR miss ticks (Tick)
system.cpu.dcache.overallMshrMissLatency::cpu.data   2517500000                       # number of overall MSHR miss ticks (Tick)
system.cpu.dcache.overallMshrMissLatency::total   2517500000                       # number of overall MSHR miss ticks (Tick)
system.cpu.dcache.demandMshrMissRate::cpu.data     0.021250                       # mshr miss ratio for demand accesses (Ratio)
system.cpu.dcache.demandMshrMissRate::total     0.021250                       # mshr miss ratio for demand accesses (Ratio)
system.cpu.dcache.overallMshrMissRate::cpu.data     0.021250                       # mshr miss ratio for overall accesses (Ratio)
system.cpu.dcache.overallMshrMissRate::total     0.021250                       # mshr miss ratio for overall accesses (Ratio)
system.cpu.dcache.demandAvgMshrMissLatency::cpu.data 97362.416367                       # average overall mshr miss latency ((Tick/Count))
system.cpu.dcache.demandAvgMshrMissLatency::total 97362.416367                       # average overall mshr miss latency ((Tick/Count))
system.cpu.dcache.overallAvgMshrMissLatency::cpu.data 97362.416367                       # average overall mshr miss latency ((Tick/Count))
system.cpu.dcache.overallAvgMshrMissLatency::total 97362.416367                       # average overall mshr miss latency ((Tick/Count))
system.cpu.dcache.replacements                  12860                       # number of replacements (Count)
system.cpu.dcache.CleanInvalidReq.missLatency::cpu.data    647117000                       # number of CleanInvalidReq miss ticks (Tick)
system.cpu.dcache.CleanInvalidReq.missLatency::total    647117000                       # number of CleanInvalidReq miss ticks (Tick)
system.cpu.dcache.CleanInvalidReq.avgMissLatency::cpu.data          inf                       # average CleanInvalidReq miss latency ((Tick/Count))
system.cpu.dcache.CleanInvalidReq.avgMissLatency::total          inf                       # average CleanInvalidReq miss latency ((Tick/Count))
system.cpu.dcache.CleanInvalidReq.mshrMisses::cpu.data        22880                       # number of CleanInvalidReq MSHR misses (Count)
system.cpu.dcache.CleanInvalidReq.mshrMisses::total        22880                       # number of CleanInvalidReq MSHR misses (Count)
system.cpu.dcache.CleanInvalidReq.mshrMissLatency::cpu.data   1190335000                       # number of CleanInvalidReq MSHR miss ticks (Tick)
system.cpu.dcache.CleanInvalidReq.mshrMissLatency::total   1190335000                       # number of CleanInvalidReq MSHR miss ticks (Tick)
system.cpu.dcache.CleanInvalidReq.mshrMissRate::cpu.data          inf                       # mshr miss rate for CleanInvalidReq accesses (Ratio)
system.cpu.dcache.CleanInvalidReq.mshrMissRate::total          inf                       # mshr miss rate for CleanInvalidReq accesses (Ratio)
system.cpu.dcache.CleanInvalidReq.avgMshrMissLatency::cpu.data 52025.131119                       # average CleanInvalidReq mshr miss latency ((Tick/Count))
system.cpu.dcache.CleanInvalidReq.avgMshrMissLatency::total 52025.131119                       # average CleanInvalidReq mshr miss latency ((Tick/Count))
system.cpu.dcache.ReadReq.hits::cpu.data       369194                       # number of ReadReq hits (Count)
system.cpu.dcache.ReadReq.hits::total          369194                       # number of ReadReq hits (Count)
system.cpu.dcache.ReadReq.misses::cpu.data        24973                       # number of ReadReq misses (Count)
system.cpu.dcache.ReadReq.misses::total         24973                       # number of ReadReq misses (Count)
system.cpu.dcache.ReadReq.missLatency::cpu.data   2377664000                       # number of ReadReq miss ticks (Tick)
system.cpu.dcache.ReadReq.missLatency::total   2377664000                       # number of ReadReq miss ticks (Tick)
system.cpu.dcache.ReadReq.accesses::cpu.data       394167                       # number of ReadReq accesses(hits+misses) (Count)
system.cpu.dcache.ReadReq.accesses::total       394167                       # number of ReadReq accesses(hits+misses) (Count)
system.cpu.dcache.ReadReq.missRate::cpu.data     0.063356                       # miss rate for ReadReq accesses (Ratio)
system.cpu.dcache.ReadReq.missRate::total     0.063356                       # miss rate for ReadReq accesses (Ratio)
system.cpu.dcache.ReadReq.avgMissLatency::cpu.data 95209.386137                       # average ReadReq miss latency ((Tick/Count))
system.cpu.dcache.ReadReq.avgMissLatency::total 95209.386137                       # average ReadReq miss latency ((Tick/Count))
system.cpu.dcache.ReadReq.mshrHits::cpu.data         1381                       # number of ReadReq MSHR hits (Count)
system.cpu.dcache.ReadReq.mshrHits::total         1381                       # number of ReadReq MSHR hits (Count)
system.cpu.dcache.ReadReq.mshrMisses::cpu.data        23592                       # number of ReadReq MSHR misses (Count)
system.cpu.dcache.ReadReq.mshrMisses::total        23592                       # number of ReadReq MSHR misses (Count)
system.cpu.dcache.ReadReq.mshrMissLatency::cpu.data   2301414000                       # number of ReadReq MSHR miss ticks (Tick)
system.cpu.dcache.ReadReq.mshrMissLatency::total   2301414000                       # number of ReadReq MSHR miss ticks (Tick)
system.cpu.dcache.ReadReq.mshrMissRate::cpu.data     0.059853                       # mshr miss rate for ReadReq accesses (Ratio)
system.cpu.dcache.ReadReq.mshrMissRate::total     0.059853                       # mshr miss rate for ReadReq accesses (Ratio)
system.cpu.dcache.ReadReq.avgMshrMissLatency::cpu.data 97550.610376                       # average ReadReq mshr miss latency ((Tick/Count))
system.cpu.dcache.ReadReq.avgMshrMissLatency::total 97550.610376                       # average ReadReq mshr miss latency ((Tick/Count))
system.cpu.dcache.WriteReq.hits::cpu.data       820374                       # number of WriteReq hits (Count)
system.cpu.dcache.WriteReq.hits::total         820374                       # number of WriteReq hits (Count)
system.cpu.dcache.WriteReq.misses::cpu.data         2267                       # number of WriteReq misses (Count)
system.cpu.dcache.WriteReq.misses::total         2267                       # number of WriteReq misses (Count)
system.cpu.dcache.WriteReq.missLatency::cpu.data    220789999                       # number of WriteReq miss ticks (Tick)
system.cpu.dcache.WriteReq.missLatency::total    220789999                       # number of WriteReq miss ticks (Tick)
system.cpu.dcache.WriteReq.accesses::cpu.data       822641                       # number of WriteReq accesses(hits+misses) (Count)
system.cpu.dcache.WriteReq.accesses::total       822641                       # number of WriteReq accesses(hits+misses) (Count)
system.cpu.dcache.WriteReq.missRate::cpu.data     0.002756                       # miss rate for WriteReq accesses (Ratio)
system.cpu.dcache.WriteReq.missRate::total     0.002756                       # miss rate for WriteReq accesses (Ratio)
system.cpu.dcache.WriteReq.avgMissLatency::cpu.data 97393.029996                       # average WriteReq miss latency ((Tick/Count))
system.cpu.dcache.WriteReq.avgMissLatency::total 97393.029996                       # average WriteReq miss latency ((Tick/Count))
system.cpu.dcache.WriteReq.mshrHits::cpu.data            2                       # number of WriteReq MSHR hits (Count)
system.cpu.dcache.WriteReq.mshrHits::total            2                       # number of WriteReq MSHR hits (Count)
system.cpu.dcache.WriteReq.mshrMisses::cpu.data         2265                       # number of WriteReq MSHR misses (Count)
system.cpu.dcache.WriteReq.mshrMisses::total         2265                       # number of WriteReq MSHR misses (Count)
system.cpu.dcache.WriteReq.mshrMissLatency::cpu.data    216086000                       # number of WriteReq MSHR miss ticks (Tick)
system.cpu.dcache.WriteReq.mshrMissLatency::total    216086000                       # number of WriteReq MSHR miss ticks (Tick)
system.cpu.dcache.WriteReq.mshrMissRate::cpu.data     0.002753                       # mshr miss rate for WriteReq accesses (Ratio)
system.cpu.dcache.WriteReq.mshrMissRate::total     0.002753                       # mshr miss rate for WriteReq accesses (Ratio)
system.cpu.dcache.WriteReq.avgMshrMissLatency::cpu.data 95402.207506                       # average WriteReq mshr miss latency ((Tick/Count))
system.cpu.dcache.WriteReq.avgMshrMissLatency::total 95402.207506                       # average WriteReq mshr miss latency ((Tick/Count))
system.cpu.dcache.power_state.pwrStateResidencyTicks::UNDEFINED   7883350000                       # Cumulative time (in ticks) in various power states (Tick)
system.cpu.dcache.tags.tagsInUse           953.103962                       # Average ticks per tags in use ((Tick/Count))
system.cpu.dcache.tags.totalRefs              1227398                       # Total number of references to valid blocks. (Count)
system.cpu.dcache.tags.sampledRefs              25857                       # Sample count of references to valid blocks. (Count)
system.cpu.dcache.tags.avgRefs              47.468693                       # Average number of references to valid blocks. ((Count/Count))
system.cpu.dcache.tags.warmupTick              222000                       # The tick when the warmup percentage was hit. (Tick)
system.cpu.dcache.tags.occupancies::cpu.data   953.103962                       # Average occupied blocks per tick, per requestor ((Count/Tick))
system.cpu.dcache.tags.avgOccs::cpu.data     0.930766                       # Average percentage of cache occupancy ((Ratio/Tick))
system.cpu.dcache.tags.avgOccs::total        0.930766                       # Average percentage of cache occupancy ((Ratio/Tick))
system.cpu.dcache.tags.occupanciesTaskId::1024         1024                       # Occupied blocks per task id (Count)
system.cpu.dcache.tags.ageTaskId_1024::0           47                       # Occupied blocks per task id, per block age (Count)
system.cpu.dcache.tags.ageTaskId_1024::1          102                       # Occupied blocks per task id, per block age (Count)
system.cpu.dcache.tags.ageTaskId_1024::3          875                       # Occupied blocks per task id, per block age (Count)
system.cpu.dcache.tags.ratioOccsTaskId::1024            1                       # Ratio of occupied blocks and all blocks, per task id (Ratio)
system.cpu.dcache.tags.tagAccesses            2505233                       # Number of tag accesses (Count)
system.cpu.dcache.tags.dataAccesses           2505233                       # Number of data accesses (Count)
system.cpu.dcache.tags.power_state.pwrStateResidencyTicks::UNDEFINED   7883350000                       # Cumulative time (in ticks) in various power states (Tick)
system.cpu.decode.idleCycles                   533899                       # Number of cycles decode is idle (Cycle)
system.cpu.decode.blockedCycles               5905990                       # Number of cycles decode is blocked (Cycle)
system.cpu.decode.runCycles                    672269                       # Number of cycles decode is running (Cycle)
system.cpu.decode.unblockCycles                717658                       # Number of cycles decode is unblocking (Cycle)
system.cpu.decode.squashCycles                  29273                       # Number of cycles decode is squashing (Cycle)
system.cpu.decode.branchResolved               672956                       # Number of times decode resolved a branch (Count)
system.cpu.decode.branchMispred                   558                       # Number of times decode detected a branch misprediction (Count)
system.cpu.decode.decodedInsts               10034847                       # Number of instructions handled by decode (Count)
system.cpu.decode.squashedInsts                  2446                       # Number of squashed instructions handled by decode (Count)
system.cpu.executeStats0.numInsts             8389928                       # Number of executed instructions (Count)
system.cpu.executeStats0.numNop                     0                       # Number of nop insts executed (Count)
system.cpu.executeStats0.numBranches           622846                       # Number of branches executed (Count)
system.cpu.executeStats0.numLoadInsts         1579663                       # Number of load instructions executed (Count)
system.cpu.executeStats0.numStoreInsts         876457                       # Number of stores executed (Count)
system.cpu.executeStats0.instRate            1.064259                       # Inst execution rate ((Count/Cycle))
system.cpu.executeStats0.numCCRegReads        3228830                       # Number of times the CC registers were read (Count)
system.cpu.executeStats0.numCCRegWrites       2743547                       # Number of times the CC registers were written (Count)
system.cpu.executeStats0.numFpRegReads          17054                       # Number of times the floating registers were read (Count)
system.cpu.executeStats0.numFpRegWrites          8124                       # Number of times the floating registers were written (Count)
system.cpu.executeStats0.numIntRegReads       8761150                       # Number of times the integer registers were read (Count)
system.cpu.executeStats0.numIntRegWrites      6224012                       # Number of times the integer registers were written (Count)
system.cpu.executeStats0.numMemRefs           2456120                       # Number of memory refs (Count)
system.cpu.executeStats0.numMiscRegReads      3908446                       # Number of times the Misc registers were read (Count)
system.cpu.executeStats0.numVecAluAccesses            0                       # Number of vector alu accesses (Count)
system.cpu.executeStats0.numDiscardedOps            0                       # Number of ops (including micro ops) which were discarded before commit (Count)
system.cpu.fetch.predictedBranches             739548                       # Number of branches that fetch has predicted taken (Count)
system.cpu.fetch.cycles                       7262779                       # Number of cycles fetch has run and was not squashing or blocked (Cycle)
system.cpu.fetch.squashCycles                   59538                       # Number of cycles fetch has spent squashing (Cycle)
system.cpu.fetch.miscStallCycles                   24                       # Number of cycles fetch has spent waiting on interrupts, or bad addresses, or out of MSHRs (Cycle)
system.cpu.fetch.pendingTrapStallCycles           267                       # Number of stall cycles due to pending traps (Cycle)
system.cpu.fetch.icacheWaitRetryStallCycles           37                       # Number of stall cycles due to full MSHR (Cycle)
system.cpu.fetch.cacheLines                    519297                       # Number of cache lines fetched (Count)
system.cpu.fetch.icacheSquashes                  1377                       # Number of outstanding Icache misses that were squashed (Count)
system.cpu.fetch.nisnDist::samples            7859089                       # Number of instructions fetched each cycle (Total) (Count)
system.cpu.fetch.nisnDist::mean              1.386619                       # Number of instructions fetched each cycle (Total) (Count)
system.cpu.fetch.nisnDist::stdev             2.709399                       # Number of instructions fetched each cycle (Total) (Count)
system.cpu.fetch.nisnDist::underflows               0      0.00%      0.00% # Number of instructions fetched each cycle (Total) (Count)
system.cpu.fetch.nisnDist::0                  5873597     74.74%     74.74% # Number of instructions fetched each cycle (Total) (Count)
system.cpu.fetch.nisnDist::1                    10847      0.14%     74.87% # Number of instructions fetched each cycle (Total) (Count)
system.cpu.fetch.nisnDist::2                   415724      5.29%     80.16% # Number of instructions fetched each cycle (Total) (Count)
system.cpu.fetch.nisnDist::3                   252598      3.21%     83.38% # Number of instructions fetched each cycle (Total) (Count)
[...]
system.mem_ctrl.dram.numReads::cpu.data         25168                       # Number of read requests responded to by this memory (Count)
system.mem_ctrl.dram.numReads::total            25747                       # Number of read requests responded to by this memory (Count)
system.mem_ctrl.dram.numWrites::writebacks          260                       # Number of write requests responded to by this memory (Count)
system.mem_ctrl.dram.numWrites::total             260                       # Number of write requests responded to by this memory (Count)
system.mem_ctrl.dram.bwRead::cpu.inst         4700540                       # Total read bandwidth from this memory ((Byte/Second))
system.mem_ctrl.dram.bwRead::cpu.data       204323289                       # Total read bandwidth from this memory ((Byte/Second))
system.mem_ctrl.dram.bwRead::total          209023829                       # Total read bandwidth from this memory ((Byte/Second))
system.mem_ctrl.dram.bwInstRead::cpu.inst      4700540                       # Instruction read bandwidth from this memory ((Byte/Second))
system.mem_ctrl.dram.bwInstRead::total        4700540                       # Instruction read bandwidth from this memory ((Byte/Second))
system.mem_ctrl.dram.bwWrite::writebacks      2110778                       # Write bandwidth from this memory ((Byte/Second))
system.mem_ctrl.dram.bwWrite::total           2110778                       # Write bandwidth from this memory ((Byte/Second))
system.mem_ctrl.dram.bwTotal::writebacks      2110778                       # Total bandwidth to/from this memory ((Byte/Second))
system.mem_ctrl.dram.bwTotal::cpu.inst        4700540                       # Total bandwidth to/from this memory ((Byte/Second))
system.mem_ctrl.dram.bwTotal::cpu.data      204323289                       # Total bandwidth to/from this memory ((Byte/Second))
system.mem_ctrl.dram.bwTotal::total         211134606                       # Total bandwidth to/from this memory ((Byte/Second))
system.mem_ctrl.dram.readBursts                 23987                       # Number of DRAM read bursts (Count)
system.mem_ctrl.dram.writeBursts                  234                       # Number of DRAM write bursts (Count)
system.mem_ctrl.dram.perBankRdBursts::0          1493                       # Per bank write bursts (Count)
system.mem_ctrl.dram.perBankRdBursts::1          1447                       # Per bank write bursts (Count)
system.mem_ctrl.dram.perBankRdBursts::2          1454                       # Per bank write bursts (Count)
system.mem_ctrl.dram.perBankRdBursts::3          1424                       # Per bank write bursts (Count)
system.mem_ctrl.dram.perBankRdBursts::4          1408                       # Per bank write bursts (Count)
system.mem_ctrl.dram.perBankRdBursts::5          1423                       # Per bank write bursts (Count)
system.mem_ctrl.dram.perBankRdBursts::6          2874                       # Per bank write bursts (Count)
system.mem_ctrl.dram.perBankRdBursts::7           748                       # Per bank write bursts (Count)
system.mem_ctrl.dram.perBankRdBursts::8          1453                       # Per bank write bursts (Count)
system.mem_ctrl.dram.perBankRdBursts::9          1469                       # Per bank write bursts (Count)
system.mem_ctrl.dram.perBankRdBursts::10         1512                       # Per bank write bursts (Count)
system.mem_ctrl.dram.perBankRdBursts::11         1490                       # Per bank write bursts (Count)
system.mem_ctrl.dram.perBankRdBursts::12         1436                       # Per bank write bursts (Count)
system.mem_ctrl.dram.perBankRdBursts::13         1460                       # Per bank write bursts (Count)
system.mem_ctrl.dram.perBankRdBursts::14         1437                       # Per bank write bursts (Count)
system.mem_ctrl.dram.perBankRdBursts::15         1459                       # Per bank write bursts (Count)
system.mem_ctrl.dram.perBankWrBursts::0            16                       # Per bank write bursts (Count)
system.mem_ctrl.dram.perBankWrBursts::1            16                       # Per bank write bursts (Count)
system.mem_ctrl.dram.perBankWrBursts::2            16                       # Per bank write bursts (Count)
system.mem_ctrl.dram.perBankWrBursts::3            16                       # Per bank write bursts (Count)
system.mem_ctrl.dram.perBankWrBursts::4            16                       # Per bank write bursts (Count)
system.mem_ctrl.dram.perBankWrBursts::5            16                       # Per bank write bursts (Count)
system.mem_ctrl.dram.perBankWrBursts::6             3                       # Per bank write bursts (Count)
system.mem_ctrl.dram.perBankWrBursts::7             7                       # Per bank write bursts (Count)
system.mem_ctrl.dram.perBankWrBursts::8            16                       # Per bank write bursts (Count)
system.mem_ctrl.dram.perBankWrBursts::9            16                       # Per bank write bursts (Count)
system.mem_ctrl.dram.perBankWrBursts::10           16                       # Per bank write bursts (Count)
system.mem_ctrl.dram.perBankWrBursts::11           16                       # Per bank write bursts (Count)
system.mem_ctrl.dram.perBankWrBursts::12           16                       # Per bank write bursts (Count)
system.mem_ctrl.dram.perBankWrBursts::13           16                       # Per bank write bursts (Count)
system.mem_ctrl.dram.perBankWrBursts::14           16                       # Per bank write bursts (Count)
system.mem_ctrl.dram.perBankWrBursts::15           16                       # Per bank write bursts (Count)
system.mem_ctrl.dram.totQLat                215173750                       # Total ticks spent queuing (Tick)
system.mem_ctrl.dram.totBusLat              119935000                       # Total ticks spent in databus transfers (Tick)
system.mem_ctrl.dram.totMemAccLat           664930000                       # Total ticks spent from burst creation until serviced by the DRAM (Tick)
system.mem_ctrl.dram.avgQLat                  8970.43                       # Average queueing delay per DRAM burst ((Tick/Count))
system.mem_ctrl.dram.avgBusLat                5000.00                       # Average bus latency per DRAM burst ((Tick/Count))
system.mem_ctrl.dram.avgMemAccLat            27720.43                       # Average memory access latency per DRAM burst ((Tick/Count))
system.mem_ctrl.dram.readRowHits                16156                       # Number of row buffer hits during reads (Count)
system.mem_ctrl.dram.writeRowHits                 216                       # Number of row buffer hits during writes (Count)
system.mem_ctrl.dram.readRowHitRate             67.35                       # Row buffer hit rate for reads (Ratio)
system.mem_ctrl.dram.writeRowHitRate            92.31                       # Row buffer hit rate for writes (Ratio)
system.mem_ctrl.dram.bytesPerActivate::samples         7842                       # Bytes accessed per row activation (Byte)
system.mem_ctrl.dram.bytesPerActivate::mean   197.492476                       # Bytes accessed per row activation (Byte)
system.mem_ctrl.dram.bytesPerActivate::gmean   162.715944                       # Bytes accessed per row activation (Byte)
system.mem_ctrl.dram.bytesPerActivate::stdev   155.481237                       # Bytes accessed per row activation (Byte)
system.mem_ctrl.dram.bytesPerActivate::0-127         1261     16.08%     16.08% # Bytes accessed per row activation (Byte)
system.mem_ctrl.dram.bytesPerActivate::128-255         4118     52.51%     68.59% # Bytes accessed per row activation (Byte)
system.mem_ctrl.dram.bytesPerActivate::256-383         2026     25.84%     94.43% # Bytes accessed per row activation (Byte)
system.mem_ctrl.dram.bytesPerActivate::384-511          116      1.48%     95.91% # Bytes accessed per row activation (Byte)
system.mem_ctrl.dram.bytesPerActivate::512-639           33      0.42%     96.33% # Bytes accessed per row activation (Byte)
system.mem_ctrl.dram.bytesPerActivate::640-767           42      0.54%     96.86% # Bytes accessed per row activation (Byte)
system.mem_ctrl.dram.bytesPerActivate::768-895          131      1.67%     98.53% # Bytes accessed per row activation (Byte)
system.mem_ctrl.dram.bytesPerActivate::896-1023            8      0.10%     98.64% # Bytes accessed per row activation (Byte)
system.mem_ctrl.dram.bytesPerActivate::1024-1151          107      1.36%    100.00% # Bytes accessed per row activation (Byte)
system.mem_ctrl.dram.bytesPerActivate::total         7842                       # Bytes accessed per row activation (Byte)
system.mem_ctrl.dram.bytesRead                1535168                       # Total bytes read (Byte)
system.mem_ctrl.dram.bytesWritten               14976                       # Total bytes written (Byte)
system.mem_ctrl.dram.avgRdBW               194.735487                       # Average DRAM read bandwidth in MiBytes/s ((Byte/Second))
system.mem_ctrl.dram.avgWrBW                 1.899700                       # Average DRAM write bandwidth in MiBytes/s ((Byte/Second))
system.mem_ctrl.dram.peakBW                  12800.00                       # Theoretical peak bandwidth in MiByte/s ((Byte/Second))
system.mem_ctrl.dram.busUtil                     1.54                       # Data bus utilization in percentage (Ratio)
system.mem_ctrl.dram.busUtilRead                 1.52                       # Data bus utilization in percentage for reads (Ratio)
system.mem_ctrl.dram.busUtilWrite                0.01                       # Data bus utilization in percentage for writes (Ratio)
system.mem_ctrl.dram.pageHitRate                67.59                       # Row buffer hit rate, read and write combined (Ratio)
system.mem_ctrl.dram.power_state.pwrStateResidencyTicks::UNDEFINED   7883350000                       # Cumulative time (in ticks) in various power states (Tick)
system.mem_ctrl.dram.rank0.actEnergy         26903520                       # Energy for activate commands per rank (pJ) (Joule)
system.mem_ctrl.dram.rank0.preEnergy         14284380                       # Energy for precharge commands per rank (pJ) (Joule)
system.mem_ctrl.dram.rank0.readEnergy        87614940                       # Energy for read commands per rank (pJ) (Joule)
system.mem_ctrl.dram.rank0.writeEnergy         553320                       # Energy for write commands per rank (pJ) (Joule)
system.mem_ctrl.dram.rank0.refreshEnergy 622015680.000000                       # Energy for refresh commands per rank (pJ) (Joule)
system.mem_ctrl.dram.rank0.actBackEnergy   2469128850                       # Energy for active background per rank (pJ) (Joule)
system.mem_ctrl.dram.rank0.preBackEnergy    947940000                       # Energy for precharge background per rank (pJ) (Joule)
system.mem_ctrl.dram.rank0.actPowerDownEnergy            0                       # Energy for active power-down per rank (pJ) (Joule)
system.mem_ctrl.dram.rank0.prePowerDownEnergy            0                       # Energy for precharge power-down per rank (pJ) (Joule)
system.mem_ctrl.dram.rank0.selfRefreshEnergy            0                       # Energy for self refresh per rank (pJ) (Joule)
system.mem_ctrl.dram.rank0.totalEnergy     4168440690                       # Total energy per rank (pJ) (Joule)
system.mem_ctrl.dram.rank0.averagePower    528.765143                       # Core power per rank (mW) (Watt)
system.mem_ctrl.dram.rank0.totalIdleTime            0                       # Total Idle time Per DRAM Rank (Tick)
system.mem_ctrl.dram.rank0.pwrStateTime::IDLE   2443700000                       # Time in different power states (Tick)
system.mem_ctrl.dram.rank0.pwrStateTime::REF    263120000                       # Time in different power states (Tick)
system.mem_ctrl.dram.rank0.pwrStateTime::SREF            0                       # Time in different power states (Tick)
system.mem_ctrl.dram.rank0.pwrStateTime::PRE_PDN            0                       # Time in different power states (Tick)
system.mem_ctrl.dram.rank0.pwrStateTime::ACT   5176530000                       # Time in different power states (Tick)
system.mem_ctrl.dram.rank0.pwrStateTime::ACT_PDN            0                       # Time in different power states (Tick)
system.mem_ctrl.dram.rank1.actEnergy         29138340                       # Energy for activate commands per rank (pJ) (Joule)
system.mem_ctrl.dram.rank1.preEnergy         15476010                       # Energy for precharge commands per rank (pJ) (Joule)
system.mem_ctrl.dram.rank1.readEnergy        83652240                       # Energy for read commands per rank (pJ) (Joule)
system.mem_ctrl.dram.rank1.writeEnergy         668160                       # Energy for write commands per rank (pJ) (Joule)
system.mem_ctrl.dram.rank1.refreshEnergy 622015680.000000                       # Energy for refresh commands per rank (pJ) (Joule)
system.mem_ctrl.dram.rank1.actBackEnergy   2094397740                       # Energy for active background per rank (pJ) (Joule)
system.mem_ctrl.dram.rank1.preBackEnergy   1263503040                       # Energy for precharge background per rank (pJ) (Joule)
system.mem_ctrl.dram.rank1.actPowerDownEnergy            0                       # Energy for active power-down per rank (pJ) (Joule)
system.mem_ctrl.dram.rank1.prePowerDownEnergy            0                       # Energy for precharge power-down per rank (pJ) (Joule)
system.mem_ctrl.dram.rank1.selfRefreshEnergy            0                       # Energy for self refresh per rank (pJ) (Joule)
system.mem_ctrl.dram.rank1.totalEnergy     4108851210                       # Total energy per rank (pJ) (Joule)
system.mem_ctrl.dram.rank1.averagePower    521.206240                       # Core power per rank (mW) (Watt)
system.mem_ctrl.dram.rank1.totalIdleTime            0                       # Total Idle time Per DRAM Rank (Tick)
system.mem_ctrl.dram.rank1.pwrStateTime::IDLE   3266440750                       # Time in different power states (Tick)
system.mem_ctrl.dram.rank1.pwrStateTime::REF    263120000                       # Time in different power states (Tick)
system.mem_ctrl.dram.rank1.pwrStateTime::SREF            0                       # Time in different power states (Tick)
system.mem_ctrl.dram.rank1.pwrStateTime::PRE_PDN            0                       # Time in different power states (Tick)
system.mem_ctrl.dram.rank1.pwrStateTime::ACT   4353789250                       # Time in different power states (Tick)
system.mem_ctrl.dram.rank1.pwrStateTime::ACT_PDN            0                       # Time in different power states (Tick)
system.mem_ctrl.power_state.pwrStateResidencyTicks::UNDEFINED   7883350000                       # Cumulative time (in ticks) in various power states (Tick)
system.membus.transDist::ReadResp               23567                       # Transaction distribution (Count)
system.membus.transDist::WritebackDirty             4                       # Transaction distribution (Count)
system.membus.transDist::WriteClean               256                       # Transaction distribution (Count)
system.membus.transDist::CleanEvict                 5                       # Transaction distribution (Count)
system.membus.transDist::ReadExReq               2179                       # Transaction distribution (Count)
system.membus.transDist::ReadExResp              2179                       # Transaction distribution (Count)
system.membus.transDist::ReadSharedReq          23568                       # Transaction distribution (Count)
system.membus.transDist::CleanInvalidReq        22880                       # Transaction distribution (Count)
system.membus.pktCount_system.l2cache.mem_side_port::system.mem_ctrl.port        74638                       # Packet count per connected requestor and responder (Count)
system.membus.pktCount_system.l2cache.mem_side_port::total        74638                       # Packet count per connected requestor and responder (Count)
system.membus.pktCount::total                   74638                       # Packet count per connected requestor and responder (Count)
system.membus.pktSize_system.l2cache.mem_side_port::system.mem_ctrl.port      1664384                       # Cumulative packet size per connected requestor and responder (Byte)
system.membus.pktSize_system.l2cache.mem_side_port::total      1664384                       # Cumulative packet size per connected requestor and responder (Byte)
system.membus.pktSize::total                  1664384                       # Cumulative packet size per connected requestor and responder (Byte)
system.membus.snoops                                0                       # Total snoops (Count)
system.membus.snoopTraffic                          0                       # Total snoop traffic (Byte)
system.membus.snoopFanout::samples              48627                       # Request fanout histogram (Count)
system.membus.snoopFanout::mean                     0                       # Request fanout histogram (Count)
system.membus.snoopFanout::stdev                    0                       # Request fanout histogram (Count)
system.membus.snoopFanout::underflows               0      0.00%      0.00% # Request fanout histogram (Count)
system.membus.snoopFanout::0                    48627    100.00%    100.00% # Request fanout histogram (Count)
system.membus.snoopFanout::1                        0      0.00%    100.00% # Request fanout histogram (Count)
system.membus.snoopFanout::overflows                0      0.00%    100.00% # Request fanout histogram (Count)
system.membus.snoopFanout::min_value                0                       # Request fanout histogram (Count)
system.membus.snoopFanout::max_value                0                       # Request fanout histogram (Count)
system.membus.snoopFanout::total                48627                       # Request fanout histogram (Count)
system.membus.power_state.pwrStateResidencyTicks::UNDEFINED   7883350000                       # Cumulative time (in ticks) in various power states (Tick)
system.membus.reqLayer2.occupancy            49932000                       # Layer occupancy (ticks) (Tick)
system.membus.reqLayer2.utilization               0.0                       # Layer utilization (Ratio)
system.membus.respLayer0.occupancy          136615250                       # Layer occupancy (ticks) (Tick)
system.membus.respLayer0.utilization              0.0                       # Layer utilization (Ratio)
system.membus.snoop_filter.totRequests          48636                       # Total number of requests made to the snoop filter. (Count)
system.membus.snoop_filter.hitSingleRequests        22889                       # Number of requests hitting in the snoop filter with a single holder of the requested data. (Count)
system.membus.snoop_filter.hitMultiRequests            0                       # Number of requests hitting in the snoop filter with multiple (>1) holders of the requested data. (Count)
system.membus.snoop_filter.totSnoops                0                       # Total number of snoops made to the snoop filter. (Count)
system.membus.snoop_filter.hitSingleSnoops            0                       # Number of snoops hitting in the snoop filter with a single holder of the requested data. (Count)
system.membus.snoop_filter.hitMultiSnoops            0                       # Number of snoops hitting in the snoop filter with multiple (>1) holders of the requested data. (Count)
system.workload.inst.arm                            0                       # number of arm instructions executed (Count)
system.workload.inst.quiesce                        0                       # number of quiesce instructions executed (Count)

---------- End Simulation Statistics   ----------
