
---------- Begin Simulation Statistics ----------
simSeconds                                   2.197581                       # Number of seconds simulated (Second)
simTicks                                 2197580503000                       # Number of ticks simulated (Tick)
finalTick                                2197580503000                       # Number of ticks from beginning of simulation (restored from checkpoints and never reset) (Tick)
simFreq                                  1000000000000                       # The number of ticks per simulated second ((Tick/Second))
hostSeconds                                   3326.12                       # Real time elapsed on the host (Second)
hostTickRate                                660704124                       # The number of ticks simulated per host second (ticks/s) ((Tick/Second))
hostMemory                                     726584                       # Number of bytes of host memory used (Byte)
simInsts                                    908544426                       # Number of instructions simulated (Count)
simOps                                     1550189352                       # Number of ops (including micro ops) simulated (Count)
hostInstRate                                   273155                       # Simulator instruction rate (inst/s) ((Count/Second))
hostOpRate                                     466066                       # Simulator op (including micro ops) rate (op/s) ((Count/Second))
system.clk_domain.clock                          1000                       # Clock period in ticks (Tick)
system.clk_domain.voltage_domain.voltage            1                       # Voltage in Volts (Volt)
system.cpu.numCycles                       2197580504                       # Number of cpu cycles simulated (Cycle)
system.cpu.cpi                               2.418793                       # CPI: cycles per instruction (core level) ((Cycle/Count))
system.cpu.ipc                               0.413429                       # IPC: instructions per cycle (core level) ((Count/Cycle))
system.cpu.numWorkItemsStarted                      0                       # Number of work items this cpu started (Count)
system.cpu.numWorkItemsCompleted                    0                       # Number of work items this cpu completed (Count)
system.cpu.instsAdded                      2318968706                       # Number of instructions added to the IQ (excludes non-spec) (Count)
system.cpu.nonSpecInstsAdded                 44690214                       # Number of non-speculative instructions added to the IQ (Count)
system.cpu.instsIssued                     1883260536                       # Number of instructions issued (Count)
system.cpu.squashedInstsIssued                5833223                       # Number of squashed instructions issued (Count)
system.cpu.squashedInstsExamined            813469562                       # Number of squashed instructions iterated over during squash; mainly for profiling (Count)
system.cpu.squashedOperandsExamined        2223628873                       # Number of squashed operands that are examined and possibly removed from graph (Count)
system.cpu.squashedNonSpecRemoved            25115274                       # Number of squashed non-spec instructions that were removed (Count)
system.cpu.numIssuedDist::samples          2197554317                       # Number of insts issued each cycle (Count)
system.cpu.numIssuedDist::mean               0.856980                       # Number of insts issued each cycle (Count)
system.cpu.numIssuedDist::stdev              1.395891                       # Number of insts issued each cycle (Count)
system.cpu.numIssuedDist::underflows                0      0.00%      0.00% # Number of insts issued each cycle (Count)
system.cpu.numIssuedDist::0                1410772662     64.20%     64.20% # Number of insts issued each cycle (Count)
system.cpu.numIssuedDist::1                 219770347     10.00%     74.20% # Number of insts issued each cycle (Count)
system.cpu.numIssuedDist::2                 258871540     11.78%     85.98% # Number of insts issued each cycle (Count)
system.cpu.numIssuedDist::3                 172594362      7.85%     93.83% # Number of insts issued each cycle (Count)
system.cpu.numIssuedDist::4                  91363185      4.16%     97.99% # Number of insts issued each cycle (Count)
system.cpu.numIssuedDist::5                  25154620      1.14%     99.13% # Number of insts issued each cycle (Count)
system.cpu.numIssuedDist::6                   5533314      0.25%     99.39% # Number of insts issued each cycle (Count)
system.cpu.numIssuedDist::7                   4415997      0.20%     99.59% # Number of insts issued each cycle (Count)
system.cpu.numIssuedDist::8                   9078290      0.41%    100.00% # Number of insts issued each cycle (Count)
system.cpu.numIssuedDist::overflows                 0      0.00%    100.00% # Number of insts issued each cycle (Count)
system.cpu.numIssuedDist::min_value                 0                       # Number of insts issued each cycle (Count)
system.cpu.numIssuedDist::max_value                 8                       # Number of insts issued each cycle (Count)
system.cpu.numIssuedDist::total            2197554317                       # Number of insts issued each cycle (Count)
system.cpu.statFuBusy::No_OpClass                   0      0.00%      0.00% # attempts to use FU when none available (Count)
system.cpu.statFuBusy::IntAlu                  212408      2.45%      2.45% # attempts to use FU when none available (Count)
system.cpu.statFuBusy::IntMult                      0      0.00%      2.45% # attempts to use FU when none available (Count)
system.cpu.statFuBusy::IntDiv                       0      0.00%      2.45% # attempts to use FU when none available (Count)
system.cpu.statFuBusy::FloatAdd                     0      0.00%      2.45% # attempts to use FU when none available (Count)
system.cpu.statFuBusy::FloatCmp                     0      0.00%      2.45% # attempts to use FU when none available (Count)
system.cpu.statFuBusy::FloatCvt                     0      0.00%      2.45% # attempts to use FU when none available (Count)
system.cpu.statFuBusy::FloatMult                    0      0.00%      2.45% # attempts to use FU when none available (Count)
system.cpu.statFuBusy::FloatMultAcc                 0      0.00%      2.45% # attempts to use FU when none available (Count)
system.cpu.statFuBusy::FloatDiv                     0      0.00%      2.45% # attempts to use FU when none available (Count)
system.cpu.statFuBusy::FloatMisc                    0      0.00%      2.45% # attempts to use FU when none available (Count)
system.cpu.statFuBusy::FloatSqrt                    0      0.00%      2.45% # attempts to use FU when none available (Count)
system.cpu.statFuBusy::SimdAdd                      0      0.00%      2.45% # attempts to use FU when none available (Count)
system.cpu.statFuBusy::SimdAddAcc                   0      0.00%      2.45% # attempts to use FU when none available (Count)
system.cpu.statFuBusy::SimdAlu                     12      0.00%      2.45% # attempts to use FU when none available (Count)
system.cpu.statFuBusy::SimdCmp                      0      0.00%      2.45% # attempts to use FU when none available (Count)
system.cpu.statFuBusy::SimdCvt                     13      0.00%      2.45% # attempts to use FU when none available (Count)
system.cpu.statFuBusy::SimdMisc                     5      0.00%      2.45% # attempts to use FU when none available (Count)
system.cpu.statFuBusy::SimdMult                     0      0.00%      2.45% # attempts to use FU when none available (Count)
system.cpu.statFuBusy::SimdMultAcc                  0      0.00%      2.45% # attempts to use FU when none available (Count)
system.cpu.statFuBusy::SimdMatMultAcc               0      0.00%      2.45% # attempts to use FU when none available (Count)
system.cpu.statFuBusy::SimdShift                    0      0.00%      2.45% # attempts to use FU when none available (Count)
system.cpu.statFuBusy::SimdShiftAcc                 0      0.00%      2.45% # attempts to use FU when none available (Count)
system.cpu.statFuBusy::SimdDiv                      0      0.00%      2.45% # attempts to use FU when none available (Count)
system.cpu.statFuBusy::SimdSqrt                     0      0.00%      2.45% # attempts to use FU when none available (Count)
system.cpu.statFuBusy::SimdFloatAdd                 0      0.00%      2.45% # attempts to use FU when none available (Count)
system.cpu.statFuBusy::SimdFloatAlu                 0      0.00%      2.45% # attempts to use FU when none available (Count)
system.cpu.statFuBusy::SimdFloatCmp                 0      0.00%      2.45% # attempts to use FU when none available (Count)
system.cpu.statFuBusy::SimdFloatCvt                 0      0.00%      2.45% # attempts to use FU when none available (Count)
system.cpu.statFuBusy::SimdFloatDiv                 0      0.00%      2.45% # attempts to use FU when none available (Count)
system.cpu.statFuBusy::SimdFloatMisc                0      0.00%      2.45% # attempts to use FU when none available (Count)
system.cpu.statFuBusy::SimdFloatMult                0      0.00%      2.45% # attempts to use FU when none available (Count)
system.cpu.statFuBusy::SimdFloatMultAcc             0      0.00%      2.45% # attempts to use FU when none available (Count)
system.cpu.statFuBusy::SimdFloatMatMultAcc            0      0.00%      2.45% # attempts to use FU when none available (Count)
system.cpu.statFuBusy::SimdFloatSqrt                0      0.00%      2.45% # attempts to use FU when none available (Count)
system.cpu.statFuBusy::SimdReduceAdd                0      0.00%      2.45% # attempts to use FU when none available (Count)
system.cpu.statFuBusy::SimdReduceAlu                0      0.00%      2.45% # attempts to use FU when none available (Count)
system.cpu.statFuBusy::SimdReduceCmp                0      0.00%      2.45% # attempts to use FU when none available (Count)
system.cpu.statFuBusy::SimdFloatReduceAdd            0      0.00%      2.45% # attempts to use FU when none available (Count)
system.cpu.statFuBusy::SimdFloatReduceCmp            0      0.00%      2.45% # attempts to use FU when none available (Count)
system.cpu.statFuBusy::SimdAes                      0      0.00%      2.45% # attempts to use FU when none available (Count)
system.cpu.statFuBusy::SimdAesMix                   0      0.00%      2.45% # attempts to use FU when none available (Count)
system.cpu.statFuBusy::SimdSha1Hash                 0      0.00%      2.45% # attempts to use FU when none available (Count)
system.cpu.statFuBusy::SimdSha1Hash2                0      0.00%      2.45% # attempts to use FU when none available (Count)
system.cpu.statFuBusy::SimdSha256Hash               0      0.00%      2.45% # attempts to use FU when none available (Count)
system.cpu.statFuBusy::SimdSha256Hash2              0      0.00%      2.45% # attempts to use FU when none available (Count)
system.cpu.statFuBusy::SimdShaSigma2                0      0.00%      2.45% # attempts to use FU when none available (Count)
system.cpu.statFuBusy::SimdShaSigma3                0      0.00%      2.45% # attempts to use FU when none available (Count)
system.cpu.statFuBusy::SimdPredAlu                  0      0.00%      2.45% # attempts to use FU when none available (Count)
system.cpu.statFuBusy::Matrix                       0      0.00%      2.45% # attempts to use FU when none available (Count)
system.cpu.statFuBusy::MatrixMov                    0      0.00%      2.45% # attempts to use FU when none available (Count)
system.cpu.statFuBusy::MatrixOP                     0      0.00%      2.45% # attempts to use FU when none available (Count)
system.cpu.statFuBusy::MemRead                8450306     97.37%     99.82% # attempts to use FU when none available (Count)
system.cpu.statFuBusy::MemWrite                 15360      0.18%    100.00% # attempts to use FU when none available (Count)
system.cpu.statFuBusy::FloatMemRead                 8      0.00%    100.00% # attempts to use FU when none available (Count)
system.cpu.statFuBusy::FloatMemWrite               10      0.00%    100.00% # attempts to use FU when none available (Count)
system.cpu.statFuBusy::IprAccess                    0      0.00%    100.00% # attempts to use FU when none available (Count)
system.cpu.statFuBusy::InstPrefetch                 0      0.00%    100.00% # attempts to use FU when none available (Count)
system.cpu.statFuBusy::VectorUnitStrideLoad            0      0.00%    100.00% # attempts to use FU when none available (Count)
system.cpu.statFuBusy::VectorUnitStrideStore            0      0.00%    100.00% # attempts to use FU when none available (Count)
system.cpu.statFuBusy::VectorUnitStrideMaskLoad            0      0.00%    100.00% # attempts to use FU when none available (Count)
system.cpu.statFuBusy::VectorUnitStrideMaskStore            0      0.00%    100.00% # attempts to use FU when none available (Count)
system.cpu.statFuBusy::VectorStridedLoad            0      0.00%    100.00% # attempts to use FU when none available (Count)
system.cpu.statFuBusy::VectorStridedStore            0      0.00%    100.00% # attempts to use FU when none available (Count)
system.cpu.statFuBusy::VectorIndexedLoad            0      0.00%    100.00% # attempts to use FU when none available (Count)
system.cpu.statFuBusy::VectorIndexedStore            0      0.00%    100.00% # attempts to use FU when none available (Count)
system.cpu.statFuBusy::VectorUnitStrideFaultOnlyFirstLoad            0      0.00%    100.00% # attempts to use FU when none available (Count)
system.cpu.statFuBusy::VectorWholeRegisterLoad            0      0.00%    100.00% # attempts to use FU when none available (Count)
system.cpu.statFuBusy::VectorWholeRegisterStore            0      0.00%    100.00% # attempts to use FU when none available (Count)
system.cpu.statFuBusy::VectorIntegerArith            0      0.00%    100.00% # attempts to use FU when none available (Count)
system.cpu.statFuBusy::VectorFloatArith             0      0.00%    100.00% # attempts to use FU when none available (Count)
system.cpu.statFuBusy::VectorFloatConvert            0      0.00%    100.00% # attempts to use FU when none available (Count)
system.cpu.statFuBusy::VectorIntegerReduce            0      0.00%    100.00% # attempts to use FU when none available (Count)
system.cpu.statFuBusy::VectorFloatReduce            0      0.00%    100.00% # attempts to use FU when none available (Count)
system.cpu.statFuBusy::VectorMisc                   0      0.00%    100.00% # attempts to use FU when none available (Count)
system.cpu.statFuBusy::VectorIntegerExtension            0      0.00%    100.00% # attempts to use FU when none available (Count)
system.cpu.statFuBusy::VectorConfig                 0      0.00%    100.00% # attempts to use FU when none available (Count)
system.cpu.statIssuedInstType_0::No_OpClass          936      0.00%      0.00% # Number of instructions issued per FU type, per thread (Count)
system.cpu.statIssuedInstType_0::IntAlu    1349505243     71.66%     71.66% # Number of instructions issued per FU type, per thread (Count)
system.cpu.statIssuedInstType_0::IntMult      7195595      0.38%     72.04% # Number of instructions issued per FU type, per thread (Count)
system.cpu.statIssuedInstType_0::IntDiv        372191      0.02%     72.06% # Number of instructions issued per FU type, per thread (Count)
system.cpu.statIssuedInstType_0::FloatAdd          339      0.00%     72.06% # Number of instructions issued per FU type, per thread (Count)
system.cpu.statIssuedInstType_0::FloatCmp            0      0.00%     72.06% # Number of instructions issued per FU type, per thread (Count)
system.cpu.statIssuedInstType_0::FloatCvt            0      0.00%     72.06% # Number of instructions issued per FU type, per thread (Count)
system.cpu.statIssuedInstType_0::FloatMult            0      0.00%     72.06% # Number of instructions issued per FU type, per thread (Count)
system.cpu.statIssuedInstType_0::FloatMultAcc            0      0.00%     72.06% # Number of instructions issued per FU type, per thread (Count)
system.cpu.statIssuedInstType_0::FloatDiv            0      0.00%     72.06% # Number of instructions issued per FU type, per thread (Count)
system.cpu.statIssuedInstType_0::FloatMisc            0      0.00%     72.06% # Number of instructions issued per FU type, per thread (Count)
system.cpu.statIssuedInstType_0::FloatSqrt            0      0.00%     72.06% # Number of instructions issued per FU type, per thread (Count)
system.cpu.statIssuedInstType_0::SimdAdd            0      0.00%     72.06% # Number of instructions issued per FU type, per thread (Count)
system.cpu.statIssuedInstType_0::SimdAddAcc            0      0.00%     72.06% # Number of instructions issued per FU type, per thread (Count)
system.cpu.statIssuedInstType_0::SimdAlu         1716      0.00%     72.06% # Number of instructions issued per FU type, per thread (Count)
system.cpu.statIssuedInstType_0::SimdCmp            6      0.00%     72.06% # Number of instructions issued per FU type, per thread (Count)
system.cpu.statIssuedInstType_0::SimdCvt         1983      0.00%     72.06% # Number of instructions issued per FU type, per thread (Count)
system.cpu.statIssuedInstType_0::SimdMisc         3388      0.00%     72.06% # Number of instructions issued per FU type, per thread (Count)
system.cpu.statIssuedInstType_0::SimdMult            0      0.00%     72.06% # Number of instructions issued per FU type, per thread (Count)
system.cpu.statIssuedInstType_0::SimdMultAcc            0      0.00%     72.06% # Number of instructions issued per FU type, per thread (Count)
system.cpu.statIssuedInstType_0::SimdMatMultAcc            0      0.00%     72.06% # Number of instructions issued per FU type, per thread (Count)
system.cpu.statIssuedInstType_0::SimdShift            0      0.00%     72.06% # Number of instructions issued per FU type, per thread (Count)
system.cpu.statIssuedInstType_0::SimdShiftAcc            0      0.00%     72.06% # Number of instructions issued per FU type, per thread (Count)
system.cpu.statIssuedInstType_0::SimdDiv            0      0.00%     72.06% # Number of instructions issued per FU type, per thread (Count)
system.cpu.statIssuedInstType_0::SimdSqrt            0      0.00%     72.06% # Number of instructions issued per FU type, per thread (Count)
system.cpu.statIssuedInstType_0::SimdFloatAdd            0      0.00%     72.06% # Number of instructions issued per FU type, per thread (Count)
system.cpu.statIssuedInstType_0::SimdFloatAlu            0      0.00%     72.06% # Number of instructions issued per FU type, per thread (Count)
system.cpu.statIssuedInstType_0::SimdFloatCmp            0      0.00%     72.06% # Number of instructions issued per FU type, per thread (Count)
system.cpu.statIssuedInstType_0::SimdFloatCvt            0      0.00%     72.06% # Number of instructions issued per FU type, per thread (Count)
system.cpu.statIssuedInstType_0::SimdFloatDiv            0      0.00%     72.06% # Number of instructions issued per FU type, per thread (Count)
system.cpu.statIssuedInstType_0::SimdFloatMisc            0      0.00%     72.06% # Number of instructions issued per FU type, per thread (Count)
system.cpu.statIssuedInstType_0::SimdFloatMult            0      0.00%     72.06% # Number of instructions issued per FU type, per thread (Count)
system.cpu.statIssuedInstType_0::SimdFloatMultAcc            0      0.00%     72.06% # Number of instructions issued per FU type, per thread (Count)
system.cpu.statIssuedInstType_0::SimdFloatMatMultAcc            0      0.00%     72.06% # Number of instructions issued per FU type, per thread (Count)
system.cpu.statIssuedInstType_0::SimdFloatSqrt            0      0.00%     72.06% # Number of instructions issued per FU type, per thread (Count)
system.cpu.statIssuedInstType_0::SimdReduceAdd            0      0.00%     72.06% # Number of instructions issued per FU type, per thread (Count)
system.cpu.statIssuedInstType_0::SimdReduceAlu            0      0.00%     72.06% # Number of instructions issued per FU type, per thread (Count)
system.cpu.statIssuedInstType_0::SimdReduceCmp            0      0.00%     72.06% # Number of instructions issued per FU type, per thread (Count)
system.cpu.statIssuedInstType_0::SimdFloatReduceAdd            0      0.00%     72.06% # Number of instructions issued per FU type, per thread (Count)
system.cpu.statIssuedInstType_0::SimdFloatReduceCmp            0      0.00%     72.06% # Number of instructions issued per FU type, per thread (Count)
system.cpu.statIssuedInstType_0::SimdAes            0      0.00%     72.06% # Number of instructions issued per FU type, per thread (Count)
system.cpu.statIssuedInstType_0::SimdAesMix            0      0.00%     72.06% # Number of instructions issued per FU type, per thread (Count)
system.cpu.statIssuedInstType_0::SimdSha1Hash            0      0.00%     72.06% # Number of instructions issued per FU type, per thread (Count)
system.cpu.statIssuedInstType_0::SimdSha1Hash2            0      0.00%     72.06% # Number of instructions issued per FU type, per thread (Count)
system.cpu.statIssuedInstType_0::SimdSha256Hash            0      0.00%     72.06% # Number of instructions issued per FU type, per thread (Count)
system.cpu.statIssuedInstType_0::SimdSha256Hash2            0      0.00%     72.06% # Number of instructions issued per FU type, per thread (Count)
system.cpu.statIssuedInstType_0::SimdShaSigma2            0      0.00%     72.06% # Number of instructions issued per FU type, per thread (Count)
system.cpu.statIssuedInstType_0::SimdShaSigma3            0      0.00%     72.06% # Number of instructions issued per FU type, per thread (Count)
system.cpu.statIssuedInstType_0::SimdPredAlu            0      0.00%     72.06% # Number of instructions issued per FU type, per thread (Count)
system.cpu.statIssuedInstType_0::Matrix             0      0.00%     72.06% # Number of instructions issued per FU type, per thread (Count)
system.cpu.statIssuedInstType_0::MatrixMov            0      0.00%     72.06% # Number of instructions issued per FU type, per thread (Count)
system.cpu.statIssuedInstType_0::MatrixOP            0      0.00%     72.06% # Number of instructions issued per FU type, per thread (Count)
system.cpu.statIssuedInstType_0::MemRead    346314144     18.39%     90.45% # Number of instructions issued per FU type, per thread (Count)
system.cpu.statIssuedInstType_0::MemWrite    179863755      9.55%    100.00% # Number of instructions issued per FU type, per thread (Count)
system.cpu.statIssuedInstType_0::FloatMemRead         1056      0.00%    100.00% # Number of instructions issued per FU type, per thread (Count)
system.cpu.statIssuedInstType_0::FloatMemWrite          184      0.00%    100.00% # Number of instructions issued per FU type, per thread (Count)
system.cpu.statIssuedInstType_0::IprAccess            0      0.00%    100.00% # Number of instructions issued per FU type, per thread (Count)
system.cpu.statIssuedInstType_0::InstPrefetch            0      0.00%    100.00% # Number of instructions issued per FU type, per thread (Count)
system.cpu.statIssuedInstType_0::VectorUnitStrideLoad            0      0.00%    100.00% # Number of instructions issued per FU type, per thread (Count)
system.cpu.statIssuedInstType_0::VectorUnitStrideStore            0      0.00%    100.00% # Number of instructions issued per FU type, per thread (Count)
system.cpu.statIssuedInstType_0::VectorUnitStrideMaskLoad            0      0.00%    100.00% # Number of instructions issued per FU type, per thread (Count)
system.cpu.statIssuedInstType_0::VectorUnitStrideMaskStore            0      0.00%    100.00% # Number of instructions issued per FU type, per thread (Count)
system.cpu.statIssuedInstType_0::VectorStridedLoad            0      0.00%    100.00% # Number of instructions issued per FU type, per thread (Count)
system.cpu.statIssuedInstType_0::VectorStridedStore            0      0.00%    100.00% # Number of instructions issued per FU type, per thread (Count)
system.cpu.statIssuedInstType_0::VectorIndexedLoad            0      0.00%    100.00% # Number of instructions issued per FU type, per thread (Count)
system.cpu.statIssuedInstType_0::VectorIndexedStore            0      0.00%    100.00% # Number of instructions issued per FU type, per thread (Count)
system.cpu.statIssuedInstType_0::VectorUnitStrideFaultOnlyFirstLoad            0      0.00%    100.00% # Number of instructions issued per FU type, per thread (Count)
system.cpu.statIssuedInstType_0::VectorWholeRegisterLoad            0      0.00%    100.00% # Number of instructions issued per FU type, per thread (Count)
system.cpu.statIssuedInstType_0::VectorWholeRegisterStore            0      0.00%    100.00% # Number of instructions issued per FU type, per thread (Count)
system.cpu.statIssuedInstType_0::VectorIntegerArith            0      0.00%    100.00% # Number of instructions issued per FU type, per thread (Count)
system.cpu.statIssuedInstType_0::VectorFloatArith            0      0.00%    100.00% # Number of instructions issued per FU type, per thread (Count)
system.cpu.statIssuedInstType_0::VectorFloatConvert            0      0.00%    100.00% # Number of instructions issued per FU type, per thread (Count)
system.cpu.statIssuedInstType_0::VectorIntegerReduce            0      0.00%    100.00% # Number of instructions issued per FU type, per thread (Count)
system.cpu.statIssuedInstType_0::VectorFloatReduce            0      0.00%    100.00% # Number of instructions issued per FU type, per thread (Count)
system.cpu.statIssuedInstType_0::VectorMisc            0      0.00%    100.00% # Number of instructions issued per FU type, per thread (Count)
system.cpu.statIssuedInstType_0::VectorIntegerExtension            0      0.00%    100.00% # Number of instructions issued per FU type, per thread (Count)
system.cpu.statIssuedInstType_0::VectorConfig            0      0.00%    100.00% # Number of instructions issued per FU type, per thread (Count)
system.cpu.statIssuedInstType_0::total     1883260536                       # Number of instructions issued per FU type, per thread (Count)
system.cpu.issueRate                         0.856970                       # Inst issue rate ((Count/Cycle))
system.cpu.fuBusy                             8678122                       # FU busy when requested (Count)
system.cpu.fuBusyRate                        0.004608                       # FU busy rate (busy events/executed inst) ((Count/Count))
system.cpu.intInstQueueReads               5978566906                       # Number of integer instruction queue reads (Count)
system.cpu.intInstQueueWrites              3191154944                       # Number of integer instruction queue writes (Count)
system.cpu.intInstQueueWakeupAccesses      1868276318                       # Number of integer instruction queue wakeup accesses (Count)
system.cpu.fpInstQueueReads                     19828                       # Number of floating instruction queue reads (Count)
system.cpu.fpInstQueueWrites                    10326                       # Number of floating instruction queue writes (Count)
system.cpu.fpInstQueueWakeupAccesses             9845                       # Number of floating instruction queue wakeup accesses (Count)
system.cpu.vecInstQueueReads                        0                       # Number of vector instruction queue reads (Count)
system.cpu.vecInstQueueWrites                       0                       # Number of vector instruction queue writes (Count)
system.cpu.vecInstQueueWakeupAccesses               0                       # Number of vector instruction queue wakeup accesses (Count)
system.cpu.intAluAccesses                  1891927787                       # Number of integer alu accesses (Count)
system.cpu.fpAluAccesses                         9935                       # Number of floating point alu accesses (Count)
system.cpu.vecAluAccesses                           0                       # Number of vector alu accesses (Count)
system.cpu.numSquashedInsts                   4382844                       # Number of squashed instructions skipped in execute (Count)
system.cpu.numSwp                                   0                       # Number of swp insts executed (Count)
system.cpu.timesIdled                             776                       # Number of times that the entire CPU went into an idle state and unscheduled itself (Count)
system.cpu.idleCycles                           26187                       # Total number of cycles that the CPU has spent unscheduled due to idling (Cycle)
system.cpu.MemDepUnit__0.insertedLoads      463703436                       # Number of loads inserted to the mem dependence unit. (Count)
system.cpu.MemDepUnit__0.insertedStores     278262779                       # Number of stores inserted to the mem dependence unit. (Count)
system.cpu.MemDepUnit__0.conflictingLoads    416221578                       # Number of conflicting loads. (Count)
system.cpu.MemDepUnit__0.conflictingStores    213031047                       # Number of conflicting stores. (Count)
system.cpu.MemDepUnit__1.insertedLoads              0                       # Number of loads inserted to the mem dependence unit. (Count)
system.cpu.MemDepUnit__1.insertedStores             0                       # Number of stores inserted to the mem dependence unit. (Count)
system.cpu.MemDepUnit__1.conflictingLoads            0                       # Number of conflicting loads. (Count)
system.cpu.MemDepUnit__1.conflictingStores            0                       # Number of conflicting stores. (Count)
system.cpu.MemDepUnit__2.insertedLoads              0                       # Number of loads inserted to the mem dependence unit. (Count)
system.cpu.MemDepUnit__2.insertedStores             0                       # Number of stores inserted to the mem dependence unit. (Count)
system.cpu.MemDepUnit__2.conflictingLoads            0                       # Number of conflicting loads. (Count)
system.cpu.MemDepUnit__2.conflictingStores            0                       # Number of conflicting stores. (Count)
system.cpu.MemDepUnit__3.insertedLoads              0                       # Number of loads inserted to the mem dependence unit. (Count)
system.cpu.MemDepUnit__3.insertedStores             0                       # Number of stores inserted to the mem dependence unit. (Count)
system.cpu.MemDepUnit__3.conflictingLoads            0                       # Number of conflicting loads. (Count)
system.cpu.MemDepUnit__3.conflictingStores            0                       # Number of conflicting stores. (Count)
system.cpu.branchPred.lookups               204992096                       # Number of BP lookups (Count)
system.cpu.branchPred.condPredicted         195777696                       # Number of conditional branches predicted (Count)
system.cpu.branchPred.condIncorrect            771585                       # Number of conditional branches incorrect (Count)
system.cpu.branchPred.BTBLookups            189078787                       # Number of BTB lookups (Count)
system.cpu.branchPred.BTBUpdates                 4291                       # Number of BTB updates (Count)
system.cpu.branchPred.BTBHits               189078315                       # Number of BTB hits (Count)
system.cpu.branchPred.BTBHitRatio            0.999998                       # BTB Hit Ratio (Ratio)
system.cpu.branchPred.RASUsed                 1009838                       # Number of times the RAS was used to get a target. (Count)
system.cpu.branchPred.RASIncorrect                  2                       # Number of incorrect RAS predictions. (Count)
system.cpu.branchPred.indirectLookups            1380                       # Number of indirect predictor lookups. (Count)
system.cpu.branchPred.indirectHits               1119                       # Number of indirect target hits. (Count)
system.cpu.branchPred.indirectMisses              261                       # Number of indirect misses. (Count)
system.cpu.branchPred.indirectMispredicted          180                       # Number of mispredicted indirect branches. (Count)
system.cpu.branchPred.loop_predictor.correct    107502414                       # Number of times the loop predictor is the provider and the prediction is correct (Count)
system.cpu.branchPred.loop_predictor.wrong      6920381                       # Number of times the loop predictor is the provider and the prediction is wrong (Count)
system.cpu.branchPred.statistical_corrector.correct     14351424                       # Number of time the SC predictor is the provider and the prediction is correct (Count)
system.cpu.branchPred.statistical_corrector.wrong    100071371                       # Number of time the SC predictor is the provider and the prediction is wrong (Count)
system.cpu.branchPred.tage.longestMatchProviderCorrect     73867616                       # Number of times TAGE Longest Match is the provider and the prediction is correct (Count)
system.cpu.branchPred.tage.altMatchProviderCorrect        96939                       # Number of times TAGE Alt Match is the provider and the prediction is correct (Count)
system.cpu.branchPred.tage.bimodalAltMatchProviderCorrect          204                       # Number of times TAGE Alt Match is the bimodal and it is the provider and the prediction is correct (Count)
system.cpu.branchPred.tage.bimodalProviderCorrect     13468888                       # Number of times there are no hits on the TAGE tables and the bimodal prediction is correct (Count)
system.cpu.branchPred.tage.longestMatchProviderWrong       529660                       # Number of times TAGE Longest Match is the provider and the prediction is wrong (Count)
system.cpu.branchPred.tage.altMatchProviderWrong        96281                       # Number of times TAGE Alt Match is the provider and the prediction is wrong (Count)
system.cpu.branchPred.tage.bimodalAltMatchProviderWrong            8                       # Number of times TAGE Alt Match is the bimodal and it is the provider and the prediction is wrong (Count)
system.cpu.branchPred.tage.bimodalProviderWrong          506                       # Number of times there are no hits on the TAGE tables and the bimodal prediction is wrong (Count)
system.cpu.branchPred.tage.altMatchProviderWouldHaveHit          814                       # Number of times TAGE Longest Match is the provider, the prediction is wrong and Alt Match prediction was correct (Count)
system.cpu.branchPred.tage.longestMatchProviderWouldHaveHit        73900                       # Number of times TAGE Alt Match is the provider, the prediction is wrong and Longest Match prediction was correct (Count)
system.cpu.branchPred.tage.longestMatchProvider::0            0                       # TAGE provider for longest match (Count)
system.cpu.branchPred.tage.longestMatchProvider::1            0                       # TAGE provider for longest match (Count)
system.cpu.branchPred.tage.longestMatchProvider::2      3627055                       # TAGE provider for longest match (Count)
system.cpu.branchPred.tage.longestMatchProvider::3            0                       # TAGE provider for longest match (Count)
system.cpu.branchPred.tage.longestMatchProvider::4            0                       # TAGE provider for longest match (Count)
system.cpu.branchPred.tage.longestMatchProvider::5            0                       # TAGE provider for longest match (Count)
system.cpu.branchPred.tage.longestMatchProvider::6      4665817                       # TAGE provider for longest match (Count)
system.cpu.branchPred.tage.longestMatchProvider::7            0                       # TAGE provider for longest match (Count)
system.cpu.branchPred.tage.longestMatchProvider::8            0                       # TAGE provider for longest match (Count)
system.cpu.branchPred.tage.longestMatchProvider::9       383550                       # TAGE provider for longest match (Count)
system.cpu.branchPred.tage.longestMatchProvider::10      8734345                       # TAGE provider for longest match (Count)
system.cpu.branchPred.tage.longestMatchProvider::11       179245                       # TAGE provider for longest match (Count)
system.cpu.branchPred.tage.longestMatchProvider::12       155314                       # TAGE provider for longest match (Count)
system.cpu.branchPred.tage.longestMatchProvider::13       413308                       # TAGE provider for longest match (Count)
system.cpu.branchPred.tage.longestMatchProvider::14      8409759                       # TAGE provider for longest match (Count)
system.cpu.branchPred.tage.longestMatchProvider::15      1229868                       # TAGE provider for longest match (Count)
system.cpu.branchPred.tage.longestMatchProvider::16     25070145                       # TAGE provider for longest match (Count)
system.cpu.branchPred.tage.longestMatchProvider::17       275438                       # TAGE provider for longest match (Count)
system.cpu.branchPred.tage.longestMatchProvider::18       457461                       # TAGE provider for longest match (Count)
system.cpu.branchPred.tage.longestMatchProvider::19      1565704                       # TAGE provider for longest match (Count)
system.cpu.branchPred.tage.longestMatchProvider::20      3260794                       # TAGE provider for longest match (Count)
system.cpu.branchPred.tage.longestMatchProvider::21      1255994                       # TAGE provider for longest match (Count)
system.cpu.branchPred.tage.longestMatchProvider::22       486421                       # TAGE provider for longest match (Count)
system.cpu.branchPred.tage.longestMatchProvider::23            0                       # TAGE provider for longest match (Count)
system.cpu.branchPred.tage.longestMatchProvider::24      2702377                       # TAGE provider for longest match (Count)
system.cpu.branchPred.tage.longestMatchProvider::25            0                       # TAGE provider for longest match (Count)
system.cpu.branchPred.tage.longestMatchProvider::26      2501643                       # TAGE provider for longest match (Count)
system.cpu.branchPred.tage.longestMatchProvider::27            0                       # TAGE provider for longest match (Count)
system.cpu.branchPred.tage.longestMatchProvider::28      6452031                       # TAGE provider for longest match (Count)
system.cpu.branchPred.tage.longestMatchProvider::29            0                       # TAGE provider for longest match (Count)
system.cpu.branchPred.tage.longestMatchProvider::30            0                       # TAGE provider for longest match (Count)
system.cpu.branchPred.tage.longestMatchProvider::31            0                       # TAGE provider for longest match (Count)
system.cpu.branchPred.tage.longestMatchProvider::32      1379320                       # TAGE provider for longest match (Count)
system.cpu.branchPred.tage.longestMatchProvider::33            0                       # TAGE provider for longest match (Count)
system.cpu.branchPred.tage.longestMatchProvider::34            0                       # TAGE provider for longest match (Count)
system.cpu.branchPred.tage.longestMatchProvider::35            0                       # TAGE provider for longest match (Count)
system.cpu.branchPred.tage.longestMatchProvider::36      1384907                       # TAGE provider for longest match (Count)
system.cpu.branchPred.tage.altMatchProvider::0      3719546                       # TAGE provider for alt match (Count)
system.cpu.branchPred.tage.altMatchProvider::1            0                       # TAGE provider for alt match (Count)
system.cpu.branchPred.tage.altMatchProvider::2      4590739                       # TAGE provider for alt match (Count)
system.cpu.branchPred.tage.altMatchProvider::3            0                       # TAGE provider for alt match (Count)
system.cpu.branchPred.tage.altMatchProvider::4            0                       # TAGE provider for alt match (Count)
system.cpu.branchPred.tage.altMatchProvider::5            0                       # TAGE provider for alt match (Count)
system.cpu.branchPred.tage.altMatchProvider::6      9119683                       # TAGE provider for alt match (Count)
system.cpu.branchPred.tage.altMatchProvider::7            0                       # TAGE provider for alt match (Count)
system.cpu.branchPred.tage.altMatchProvider::8            0                       # TAGE provider for alt match (Count)
system.cpu.branchPred.tage.altMatchProvider::9       418983                       # TAGE provider for alt match (Count)
system.cpu.branchPred.tage.altMatchProvider::10      8614416                       # TAGE provider for alt match (Count)
system.cpu.branchPred.tage.altMatchProvider::11       363409                       # TAGE provider for alt match (Count)
system.cpu.branchPred.tage.altMatchProvider::12         2873                       # TAGE provider for alt match (Count)
system.cpu.branchPred.tage.altMatchProvider::13      1115178                       # TAGE provider for alt match (Count)
system.cpu.branchPred.tage.altMatchProvider::14     25063559                       # TAGE provider for alt match (Count)
system.cpu.branchPred.tage.altMatchProvider::15      2129412                       # TAGE provider for alt match (Count)
system.cpu.branchPred.tage.altMatchProvider::16      3357283                       # TAGE provider for alt match (Count)
system.cpu.branchPred.tage.altMatchProvider::17       266715                       # TAGE provider for alt match (Count)
system.cpu.branchPred.tage.altMatchProvider::18       407706                       # TAGE provider for alt match (Count)
system.cpu.branchPred.tage.altMatchProvider::19      1612042                       # TAGE provider for alt match (Count)
system.cpu.branchPred.tage.altMatchProvider::20       367461                       # TAGE provider for alt match (Count)
system.cpu.branchPred.tage.altMatchProvider::21      1806517                       # TAGE provider for alt match (Count)
system.cpu.branchPred.tage.altMatchProvider::22       725605                       # TAGE provider for alt match (Count)
system.cpu.branchPred.tage.altMatchProvider::23            0                       # TAGE provider for alt match (Count)
system.cpu.branchPred.tage.altMatchProvider::24      3781712                       # TAGE provider for alt match (Count)
system.cpu.branchPred.tage.altMatchProvider::25            0                       # TAGE provider for alt match (Count)
system.cpu.branchPred.tage.altMatchProvider::26      4552271                       # TAGE provider for alt match (Count)
system.cpu.branchPred.tage.altMatchProvider::27            0                       # TAGE provider for alt match (Count)
system.cpu.branchPred.tage.altMatchProvider::28      1208532                       # TAGE provider for alt match (Count)
system.cpu.branchPred.tage.altMatchProvider::29            0                       # TAGE provider for alt match (Count)
system.cpu.branchPred.tage.altMatchProvider::30            0                       # TAGE provider for alt match (Count)
system.cpu.branchPred.tage.altMatchProvider::31            0                       # TAGE provider for alt match (Count)
system.cpu.branchPred.tage.altMatchProvider::32      1366854                       # TAGE provider for alt match (Count)
system.cpu.branchPred.tage.altMatchProvider::33            0                       # TAGE provider for alt match (Count)
system.cpu.branchPred.tage.altMatchProvider::34            0                       # TAGE provider for alt match (Count)
system.cpu.branchPred.tage.altMatchProvider::35            0                       # TAGE provider for alt match (Count)
system.cpu.branchPred.tage.altMatchProvider::36            0                       # TAGE provider for alt match (Count)
system.cpu.commit.commitSquashedInsts       813467156                       # The number of squashed insts skipped by commit (Count)
system.cpu.commit.commitNonSpecStalls        19574940                       # The number of times commit has been forced to stall to communicate backwards (Count)
system.cpu.commit.branchMispredicts            771121                       # The number of times a branch was mispredicted (Count)
system.cpu.commit.numCommittedDist::samples   2090729840                       # Number of insts commited each cycle (Count)
system.cpu.commit.numCommittedDist::mean     0.741458                       # Number of insts commited each cycle (Count)
system.cpu.commit.numCommittedDist::stdev     1.537585                       # Number of insts commited each cycle (Count)
system.cpu.commit.numCommittedDist::underflows            0      0.00%      0.00% # Number of insts commited each cycle (Count)
system.cpu.commit.numCommittedDist::0      1499929375     71.74%     71.74% # Number of insts commited each cycle (Count)
system.cpu.commit.numCommittedDist::1       214317125     10.25%     81.99% # Number of insts commited each cycle (Count)
system.cpu.commit.numCommittedDist::2       134307869      6.42%     88.42% # Number of insts commited each cycle (Count)
system.cpu.commit.numCommittedDist::3       118603317      5.67%     94.09% # Number of insts commited each cycle (Count)
system.cpu.commit.numCommittedDist::4         1598500      0.08%     94.17% # Number of insts commited each cycle (Count)
system.cpu.commit.numCommittedDist::5        79334348      3.79%     97.96% # Number of insts commited each cycle (Count)
system.cpu.commit.numCommittedDist::6        13206494      0.63%     98.59% # Number of insts commited each cycle (Count)
system.cpu.commit.numCommittedDist::7         6320662      0.30%     98.89% # Number of insts commited each cycle (Count)
system.cpu.commit.numCommittedDist::8        23112150      1.11%    100.00% # Number of insts commited each cycle (Count)
system.cpu.commit.numCommittedDist::overflows            0      0.00%    100.00% # Number of insts commited each cycle (Count)
system.cpu.commit.numCommittedDist::min_value            0                       # Number of insts commited each cycle (Count)
system.cpu.commit.numCommittedDist::max_value            8                       # Number of insts commited each cycle (Count)
system.cpu.commit.numCommittedDist::total   2090729840                       # Number of insts commited each cycle (Count)
system.cpu.commit.amos                              0                       # Number of atomic instructions committed (Count)
system.cpu.commit.membars                    19574940                       # Number of memory barriers committed (Count)
system.cpu.commit.functionCalls                738090                       # Number of function calls committed. (Count)
system.cpu.commit.committedInstType_0::No_OpClass          651      0.00%      0.00% # Class of committed instruction (Count)
system.cpu.commit.committedInstType_0::IntAlu   1071617850     69.13%     69.13% # Class of committed instruction (Count)
system.cpu.commit.committedInstType_0::IntMult      7015629      0.45%     69.58% # Class of committed instruction (Count)
system.cpu.commit.committedInstType_0::IntDiv       343707      0.02%     69.60% # Class of committed instruction (Count)
system.cpu.commit.committedInstType_0::FloatAdd          336      0.00%     69.60% # Class of committed instruction (Count)
system.cpu.commit.committedInstType_0::FloatCmp            0      0.00%     69.60% # Class of committed instruction (Count)
system.cpu.commit.committedInstType_0::FloatCvt            0      0.00%     69.60% # Class of committed instruction (Count)
system.cpu.commit.committedInstType_0::FloatMult            0      0.00%     69.60% # Class of committed instruction (Count)
system.cpu.commit.committedInstType_0::FloatMultAcc            0      0.00%     69.60% # Class of committed instruction (Count)
system.cpu.commit.committedInstType_0::FloatDiv            0      0.00%     69.60% # Class of committed instruction (Count)
system.cpu.commit.committedInstType_0::FloatMisc            0      0.00%     69.60% # Class of committed instruction (Count)
system.cpu.commit.committedInstType_0::FloatSqrt            0      0.00%     69.60% # Class of committed instruction (Count)
system.cpu.commit.committedInstType_0::SimdAdd            0      0.00%     69.60% # Class of committed instruction (Count)
system.cpu.commit.committedInstType_0::SimdAddAcc            0      0.00%     69.60% # Class of committed instruction (Count)
system.cpu.commit.committedInstType_0::SimdAlu         1686      0.00%     69.60% # Class of committed instruction (Count)
system.cpu.commit.committedInstType_0::SimdCmp            6      0.00%     69.60% # Class of committed instruction (Count)
system.cpu.commit.committedInstType_0::SimdCvt         1936      0.00%     69.60% # Class of committed instruction (Count)
system.cpu.commit.committedInstType_0::SimdMisc         3356      0.00%     69.60% # Class of committed instruction (Count)
system.cpu.commit.committedInstType_0::SimdMult            0      0.00%     69.60% # Class of committed instruction (Count)
system.cpu.commit.committedInstType_0::SimdMultAcc            0      0.00%     69.60% # Class of committed instruction (Count)
system.cpu.commit.committedInstType_0::SimdMatMultAcc            0      0.00%     69.60% # Class of committed instruction (Count)
system.cpu.commit.committedInstType_0::SimdShift            0      0.00%     69.60% # Class of committed instruction (Count)
system.cpu.commit.committedInstType_0::SimdShiftAcc            0      0.00%     69.60% # Class of committed instruction (Count)
system.cpu.commit.committedInstType_0::SimdDiv            0      0.00%     69.60% # Class of committed instruction (Count)
system.cpu.commit.committedInstType_0::SimdSqrt            0      0.00%     69.60% # Class of committed instruction (Count)
system.cpu.commit.committedInstType_0::SimdFloatAdd            0      0.00%     69.60% # Class of committed instruction (Count)
system.cpu.commit.committedInstType_0::SimdFloatAlu            0      0.00%     69.60% # Class of committed instruction (Count)
system.cpu.commit.committedInstType_0::SimdFloatCmp            0      0.00%     69.60% # Class of committed instruction (Count)
system.cpu.commit.committedInstType_0::SimdFloatCvt            0      0.00%     69.60% # Class of committed instruction (Count)
system.cpu.commit.committedInstType_0::SimdFloatDiv            0      0.00%     69.60% # Class of committed instruction (Count)
system.cpu.commit.committedInstType_0::SimdFloatMisc            0      0.00%     69.60% # Class of committed instruction (Count)
system.cpu.commit.committedInstType_0::SimdFloatMult            0      0.00%     69.60% # Class of committed instruction (Count)
system.cpu.commit.committedInstType_0::SimdFloatMultAcc            0      0.00%     69.60% # Class of committed instruction (Count)
system.cpu.commit.committedInstType_0::SimdFloatMatMultAcc            0      0.00%     69.60% # Class of committed instruction (Count)
system.cpu.commit.committedInstType_0::SimdFloatSqrt            0      0.00%     69.60% # Class of committed instruction (Count)
system.cpu.commit.committedInstType_0::SimdReduceAdd            0      0.00%     69.60% # Class of committed instruction (Count)
system.cpu.commit.committedInstType_0::SimdReduceAlu            0      0.00%     69.60% # Class of committed instruction (Count)
system.cpu.commit.committedInstType_0::SimdReduceCmp            0      0.00%     69.60% # Class of committed instruction (Count)
system.cpu.commit.committedInstType_0::SimdFloatReduceAdd            0      0.00%     69.60% # Class of committed instruction (Count)
system.cpu.commit.committedInstType_0::SimdFloatReduceCmp            0      0.00%     69.60% # Class of committed instruction (Count)
system.cpu.commit.committedInstType_0::SimdAes            0      0.00%     69.60% # Class of committed instruction (Count)
system.cpu.commit.committedInstType_0::SimdAesMix            0      0.00%     69.60% # Class of committed instruction (Count)
system.cpu.commit.committedInstType_0::SimdSha1Hash            0      0.00%     69.60% # Class of committed instruction (Count)
system.cpu.commit.committedInstType_0::SimdSha1Hash2            0      0.00%     69.60% # Class of committed instruction (Count)
system.cpu.commit.committedInstType_0::SimdSha256Hash            0      0.00%     69.60% # Class of committed instruction (Count)
system.cpu.commit.committedInstType_0::SimdSha256Hash2            0      0.00%     69.60% # Class of committed instruction (Count)
system.cpu.commit.committedInstType_0::SimdShaSigma2            0      0.00%     69.60% # Class of committed instruction (Count)
system.cpu.commit.committedInstType_0::SimdShaSigma3            0      0.00%     69.60% # Class of committed instruction (Count)
system.cpu.commit.committedInstType_0::SimdPredAlu            0      0.00%     69.60% # Class of committed instruction (Count)
system.cpu.commit.committedInstType_0::Matrix            0      0.00%     69.60% # Class of committed instruction (Count)
system.cpu.commit.committedInstType_0::MatrixMov            0      0.00%     69.60% # Class of committed instruction (Count)
system.cpu.commit.committedInstType_0::MatrixOP            0      0.00%     69.60% # Class of committed instruction (Count)
system.cpu.commit.committedInstType_0::MemRead    301503330     19.45%     89.05% # Class of committed instruction (Count)
system.cpu.commit.committedInstType_0::MemWrite    169699707     10.95%    100.00% # Class of committed instruction (Count)
system.cpu.commit.committedInstType_0::FloatMemRead          998      0.00%    100.00% # Class of committed instruction (Count)
system.cpu.commit.committedInstType_0::FloatMemWrite          160      0.00%    100.00% # Class of committed instruction (Count)
system.cpu.commit.committedInstType_0::IprAccess            0      0.00%    100.00% # Class of committed instruction (Count)
system.cpu.commit.committedInstType_0::InstPrefetch            0      0.00%    100.00% # Class of committed instruction (Count)
system.cpu.commit.committedInstType_0::VectorUnitStrideLoad            0      0.00%    100.00% # Class of committed instruction (Count)
system.cpu.commit.committedInstType_0::VectorUnitStrideStore            0      0.00%    100.00% # Class of committed instruction (Count)
system.cpu.commit.committedInstType_0::VectorUnitStrideMaskLoad            0      0.00%    100.00% # Class of committed instruction (Count)
system.cpu.commit.committedInstType_0::VectorUnitStrideMaskStore            0      0.00%    100.00% # Class of committed instruction (Count)
system.cpu.commit.committedInstType_0::VectorStridedLoad            0      0.00%    100.00% # Class of committed instruction (Count)
system.cpu.commit.committedInstType_0::VectorStridedStore            0      0.00%    100.00% # Class of committed instruction (Count)
system.cpu.commit.committedInstType_0::VectorIndexedLoad            0      0.00%    100.00% # Class of committed instruction (Count)
system.cpu.commit.committedInstType_0::VectorIndexedStore            0      0.00%    100.00% # Class of committed instruction (Count)
system.cpu.commit.committedInstType_0::VectorUnitStrideFaultOnlyFirstLoad            0      0.00%    100.00% # Class of committed instruction (Count)
system.cpu.commit.committedInstType_0::VectorWholeRegisterLoad            0      0.00%    100.00% # Class of committed instruction (Count)
system.cpu.commit.committedInstType_0::VectorWholeRegisterStore            0      0.00%    100.00% # Class of committed instruction (Count)
system.cpu.commit.committedInstType_0::VectorIntegerArith            0      0.00%    100.00% # Class of committed instruction (Count)
system.cpu.commit.committedInstType_0::VectorFloatArith            0      0.00%    100.00% # Class of committed instruction (Count)
system.cpu.commit.committedInstType_0::VectorFloatConvert            0      0.00%    100.00% # Class of committed instruction (Count)
system.cpu.commit.committedInstType_0::VectorIntegerReduce            0      0.00%    100.00% # Class of committed instruction (Count)
system.cpu.commit.committedInstType_0::VectorFloatReduce            0      0.00%    100.00% # Class of committed instruction (Count)
system.cpu.commit.committedInstType_0::VectorMisc            0      0.00%    100.00% # Class of committed instruction (Count)
system.cpu.commit.committedInstType_0::VectorIntegerExtension            0      0.00%    100.00% # Class of committed instruction (Count)
system.cpu.commit.committedInstType_0::VectorConfig            0      0.00%    100.00% # Class of committed instruction (Count)
system.cpu.commit.committedInstType_0::total   1550189352                       # Class of committed instruction (Count)
system.cpu.commit.commitEligibleSamples      23112150                       # number cycles where commit BW limit reached (Cycle)
system.cpu.commitStats0.numInsts            908544426                       # Number of instructions committed (thread level) (Count)
system.cpu.commitStats0.numOps             1550189352                       # Number of ops (including micro ops) committed (thread level) (Count)
system.cpu.commitStats0.numInstsNotNOP      908544426                       # Number of instructions committed excluding NOPs or prefetches (Count)
system.cpu.commitStats0.numOpsNotNOP       1550189352                       # Number of Ops (including micro ops) Simulated (Count)
system.cpu.commitStats0.cpi                  2.418793                       # CPI: cycles per instruction (thread level) ((Cycle/Count))
system.cpu.commitStats0.ipc                  0.413429                       # IPC: instructions per cycle (thread level) ((Count/Cycle))
system.cpu.commitStats0.numMemRefs          471204195                       # Number of memory references committed (Count)
system.cpu.commitStats0.numFpInsts               9664                       # Number of float instructions (Count)
system.cpu.commitStats0.numIntInsts        1530556790                       # Number of integer instructions (Count)
system.cpu.commitStats0.numLoadInsts        301504328                       # Number of load instructions (Count)
system.cpu.commitStats0.numStoreInsts       169699867                       # Number of store instructions (Count)
system.cpu.commitStats0.numVecInsts                 0                       # Number of vector instructions (Count)
system.cpu.commitStats0.committedInstType::No_OpClass          651      0.00%      0.00% # Class of committed instruction. (Count)
system.cpu.commitStats0.committedInstType::IntAlu   1071617850     69.13%     69.13% # Class of committed instruction. (Count)
system.cpu.commitStats0.committedInstType::IntMult      7015629      0.45%     69.58% # Class of committed instruction. (Count)
system.cpu.commitStats0.committedInstType::IntDiv       343707      0.02%     69.60% # Class of committed instruction. (Count)
system.cpu.commitStats0.committedInstType::FloatAdd          336      0.00%     69.60% # Class of committed instruction. (Count)
system.cpu.commitStats0.committedInstType::FloatCmp            0      0.00%     69.60% # Class of committed instruction. (Count)
system.cpu.commitStats0.committedInstType::FloatCvt            0      0.00%     69.60% # Class of committed instruction. (Count)
system.cpu.commitStats0.committedInstType::FloatMult            0      0.00%     69.60% # Class of committed instruction. (Count)
system.cpu.commitStats0.committedInstType::FloatMultAcc            0      0.00%     69.60% # Class of committed instruction. (Count)
system.cpu.commitStats0.committedInstType::FloatDiv            0      0.00%     69.60% # Class of committed instruction. (Count)
system.cpu.commitStats0.committedInstType::FloatMisc            0      0.00%     69.60% # Class of committed instruction. (Count)
system.cpu.commitStats0.committedInstType::FloatSqrt            0      0.00%     69.60% # Class of committed instruction. (Count)
system.cpu.commitStats0.committedInstType::SimdAdd            0      0.00%     69.60% # Class of committed instruction. (Count)
system.cpu.commitStats0.committedInstType::SimdAddAcc            0      0.00%     69.60% # Class of committed instruction. (Count)
system.cpu.commitStats0.committedInstType::SimdAlu         1686      0.00%     69.60% # Class of committed instruction. (Count)
system.cpu.commitStats0.committedInstType::SimdCmp            6      0.00%     69.60% # Class of committed instruction. (Count)
system.cpu.commitStats0.committedInstType::SimdCvt         1936      0.00%     69.60% # Class of committed instruction. (Count)
system.cpu.commitStats0.committedInstType::SimdMisc         3356      0.00%     69.60% # Class of committed instruction. (Count)
system.cpu.commitStats0.committedInstType::SimdMult            0      0.00%     69.60% # Class of committed instruction. (Count)
system.cpu.commitStats0.committedInstType::SimdMultAcc            0      0.00%     69.60% # Class of committed instruction. (Count)
system.cpu.commitStats0.committedInstType::SimdMatMultAcc            0      0.00%     69.60% # Class of committed instruction. (Count)
system.cpu.commitStats0.committedInstType::SimdShift            0      0.00%     69.60% # Class of committed instruction. (Count)
system.cpu.commitStats0.committedInstType::SimdShiftAcc            0      0.00%     69.60% # Class of committed instruction. (Count)
system.cpu.commitStats0.committedInstType::SimdDiv            0      0.00%     69.60% # Class of committed instruction. (Count)
system.cpu.commitStats0.committedInstType::SimdSqrt            0      0.00%     69.60% # Class of committed instruction. (Count)
system.cpu.commitStats0.committedInstType::SimdFloatAdd            0      0.00%     69.60% # Class of committed instruction. (Count)
system.cpu.commitStats0.committedInstType::SimdFloatAlu            0      0.00%     69.60% # Class of committed instruction. (Count)
system.cpu.commitStats0.committedInstType::SimdFloatCmp            0      0.00%     69.60% # Class of committed instruction. (Count)
system.cpu.commitStats0.committedInstType::SimdFloatCvt            0      0.00%     69.60% # Class of committed instruction. (Count)
system.cpu.commitStats0.committedInstType::SimdFloatDiv            0      0.00%     69.60% # Class of committed instruction. (Count)
system.cpu.commitStats0.committedInstType::SimdFloatMisc            0      0.00%     69.60% # Class of committed instruction. (Count)
system.cpu.commitStats0.committedInstType::SimdFloatMult            0      0.00%     69.60% # Class of committed instruction. (Count)
system.cpu.commitStats0.committedInstType::SimdFloatMultAcc            0      0.00%     69.60% # Class of committed instruction. (Count)
system.cpu.commitStats0.committedInstType::SimdFloatMatMultAcc            0      0.00%     69.60% # Class of committed instruction. (Count)
system.cpu.commitStats0.committedInstType::SimdFloatSqrt            0      0.00%     69.60% # Class of committed instruction. (Count)
system.cpu.commitStats0.committedInstType::SimdReduceAdd            0      0.00%     69.60% # Class of committed instruction. (Count)
system.cpu.commitStats0.committedInstType::SimdReduceAlu            0      0.00%     69.60% # Class of committed instruction. (Count)
system.cpu.commitStats0.committedInstType::SimdReduceCmp            0      0.00%     69.60% # Class of committed instruction. (Count)
system.cpu.commitStats0.committedInstType::SimdFloatReduceAdd            0      0.00%     69.60% # Class of committed instruction. (Count)
system.cpu.commitStats0.committedInstType::SimdFloatReduceCmp            0      0.00%     69.60% # Class of committed instruction. (Count)
system.cpu.commitStats0.committedInstType::SimdAes            0      0.00%     69.60% # Class of committed instruction. (Count)
system.cpu.commitStats0.committedInstType::SimdAesMix            0      0.00%     69.60% # Class of committed instruction. (Count)
system.cpu.commitStats0.committedInstType::SimdSha1Hash            0      0.00%     69.60% # Class of committed instruction. (Count)
system.cpu.commitStats0.committedInstType::SimdSha1Hash2            0      0.00%     69.60% # Class of committed instruction. (Count)
system.cpu.commitStats0.committedInstType::SimdSha256Hash            0      0.00%     69.60% # Class of committed instruction. (Count)
system.cpu.commitStats0.committedInstType::SimdSha256Hash2            0      0.00%     69.60% # Class of committed instruction. (Count)
system.cpu.commitStats0.committedInstType::SimdShaSigma2            0      0.00%     69.60% # Class of committed instruction. (Count)
system.cpu.commitStats0.committedInstType::SimdShaSigma3            0      0.00%     69.60% # Class of committed instruction. (Count)
system.cpu.commitStats0.committedInstType::SimdPredAlu            0      0.00%     69.60% # Class of committed instruction. (Count)
system.cpu.commitStats0.committedInstType::Matrix            0      0.00%     69.60% # Class of committed instruction. (Count)
system.cpu.commitStats0.committedInstType::MatrixMov            0      0.00%     69.60% # Class of committed instruction. (Count)
system.cpu.commitStats0.committedInstType::MatrixOP            0      0.00%     69.60% # Class of committed instruction. (Count)
system.cpu.commitStats0.committedInstType::MemRead    301503330     19.45%     89.05% # Class of committed instruction. (Count)
system.cpu.commitStats0.committedInstType::MemWrite    169699707     10.95%    100.00% # Class of committed instruction. (Count)
system.cpu.commitStats0.committedInstType::FloatMemRead          998      0.00%    100.00% # Class of committed instruction. (Count)
system.cpu.commitStats0.committedInstType::FloatMemWrite          160      0.00%    100.00% # Class of committed instruction. (Count)
system.cpu.commitStats0.committedInstType::IprAccess            0      0.00%    100.00% # Class of committed instruction. (Count)
system.cpu.commitStats0.committedInstType::InstPrefetch            0      0.00%    100.00% # Class of committed instruction. (Count)
system.cpu.commitStats0.committedInstType::VectorUnitStrideLoad            0      0.00%    100.00% # Class of committed instruction. (Count)
system.cpu.commitStats0.committedInstType::VectorUnitStrideStore            0      0.00%    100.00% # Class of committed instruction. (Count)
system.cpu.commitStats0.committedInstType::VectorUnitStrideMaskLoad            0      0.00%    100.00% # Class of committed instruction. (Count)
system.cpu.commitStats0.committedInstType::VectorUnitStrideMaskStore            0      0.00%    100.00% # Class of committed instruction. (Count)
system.cpu.commitStats0.committedInstType::VectorStridedLoad            0      0.00%    100.00% # Class of committed instruction. (Count)
system.cpu.commitStats0.committedInstType::VectorStridedStore            0      0.00%    100.00% # Class of committed instruction. (Count)
system.cpu.commitStats0.committedInstType::VectorIndexedLoad            0      0.00%    100.00% # Class of committed instruction. (Count)
system.cpu.commitStats0.committedInstType::VectorIndexedStore            0      0.00%    100.00% # Class of committed instruction. (Count)
system.cpu.commitStats0.committedInstType::VectorUnitStrideFaultOnlyFirstLoad            0      0.00%    100.00% # Class of committed instruction. (Count)
system.cpu.commitStats0.committedInstType::VectorWholeRegisterLoad            0      0.00%    100.00% # Class of committed instruction. (Count)
system.cpu.commitStats0.committedInstType::VectorWholeRegisterStore            0      0.00%    100.00% # Class of committed instruction. (Count)
system.cpu.commitStats0.committedInstType::VectorIntegerArith            0      0.00%    100.00% # Class of committed instruction. (Count)
system.cpu.commitStats0.committedInstType::VectorFloatArith            0      0.00%    100.00% # Class of committed instruction. (Count)
system.cpu.commitStats0.committedInstType::VectorFloatConvert            0      0.00%    100.00% # Class of committed instruction. (Count)
system.cpu.commitStats0.committedInstType::VectorIntegerReduce            0      0.00%    100.00% # Class of committed instruction. (Count)
system.cpu.commitStats0.committedInstType::VectorFloatReduce            0      0.00%    100.00% # Class of committed instruction. (Count)
system.cpu.commitStats0.committedInstType::VectorMisc            0      0.00%    100.00% # Class of committed instruction. (Count)
system.cpu.commitStats0.committedInstType::VectorIntegerExtension            0      0.00%    100.00% # Class of committed instruction. (Count)
system.cpu.commitStats0.committedInstType::VectorConfig            0      0.00%    100.00% # Class of committed instruction. (Count)
system.cpu.commitStats0.committedInstType::total   1550189352                       # Class of committed instruction. (Count)
system.cpu.commitStats0.committedControl::IsControl    122735403                       # Class of control type instructions committed (Count)
system.cpu.commitStats0.committedControl::IsDirectControl    121996274                       # Class of control type instructions committed (Count)
system.cpu.commitStats0.committedControl::IsIndirectControl       739129                       # Class of control type instructions committed (Count)
system.cpu.commitStats0.committedControl::IsCondControl    114422795                       # Class of control type instructions committed (Count)
system.cpu.commitStats0.committedControl::IsUncondControl      8312608                       # Class of control type instructions committed (Count)
system.cpu.commitStats0.committedControl::IsCall       738090                       # Class of control type instructions committed (Count)
system.cpu.commitStats0.committedControl::IsReturn       738085                       # Class of control type instructions committed (Count)
system.cpu.dcache.demandHits::cpu.data      282822362                       # number of demand (read+write) hits (Count)
system.cpu.dcache.demandHits::total         282822362                       # number of demand (read+write) hits (Count)
system.cpu.dcache.overallHits::cpu.data     282822362                       # number of overall hits (Count)
system.cpu.dcache.overallHits::total        282822362                       # number of overall hits (Count)
system.cpu.dcache.demandMisses::cpu.data      7904984                       # number of demand (read+write) misses (Count)
system.cpu.dcache.demandMisses::total         7904984                       # number of demand (read+write) misses (Count)
system.cpu.dcache.overallMisses::cpu.data      7904984                       # number of overall misses (Count)
system.cpu.dcache.overallMisses::total        7904984                       # number of overall misses (Count)
system.cpu.dcache.demandMissLatency::cpu.data 702504808000                       # number of demand (read+write) miss ticks (Tick)
system.cpu.dcache.demandMissLatency::total 702504808000                       # number of demand (read+write) miss ticks (Tick)
system.cpu.dcache.overallMissLatency::cpu.data 702504808000                       # number of overall miss ticks (Tick)
system.cpu.dcache.overallMissLatency::total 702504808000                       # number of overall miss ticks (Tick)
system.cpu.dcache.demandAccesses::cpu.data    290727346                       # number of demand (read+write) accesses (Count)
system.cpu.dcache.demandAccesses::total     290727346                       # number of demand (read+write) accesses (Count)
system.cpu.dcache.overallAccesses::cpu.data    290727346                       # number of overall (read+write) accesses (Count)
system.cpu.dcache.overallAccesses::total    290727346                       # number of overall (read+write) accesses (Count)
system.cpu.dcache.demandMissRate::cpu.data     0.027190                       # miss rate for demand accesses (Ratio)
system.cpu.dcache.demandMissRate::total      0.027190                       # miss rate for demand accesses (Ratio)
system.cpu.dcache.overallMissRate::cpu.data     0.027190                       # miss rate for overall accesses (Ratio)
system.cpu.dcache.overallMissRate::total     0.027190                       # miss rate for overall accesses (Ratio)
system.cpu.dcache.demandAvgMissLatency::cpu.data 88868.593282                       # average overall miss latency in ticks ((Tick/Count))
system.cpu.dcache.demandAvgMissLatency::total 88868.593282                       # average overall miss latency in ticks ((Tick/Count))
system.cpu.dcache.overallAvgMissLatency::cpu.data 88868.593282                       # average overall miss latency ((Tick/Count))
system.cpu.dcache.overallAvgMissLatency::total 88868.593282                       # average overall miss latency ((Tick/Count))
system.cpu.dcache.blockedCycles::no_mshrs          203                       # number of cycles access was blocked (Cycle)
system.cpu.dcache.blockedCycles::no_targets            0                       # number of cycles access was blocked (Cycle)
system.cpu.dcache.blockedCauses::no_mshrs            6                       # number of times access was blocked (Count)
system.cpu.dcache.blockedCauses::no_targets            0                       # number of times access was blocked (Count)
system.cpu.dcache.avgBlocked::no_mshrs      33.833333                       # average number of cycles each access was blocked ((Cycle/Count))
system.cpu.dcache.avgBlocked::no_targets          nan                       # average number of cycles each access was blocked ((Cycle/Count))
system.cpu.dcache.writebacks::writebacks        74904                       # number of writebacks (Count)
system.cpu.dcache.writebacks::total             74904                       # number of writebacks (Count)
system.cpu.dcache.demandMshrHits::cpu.data       803690                       # number of demand (read+write) MSHR hits (Count)
system.cpu.dcache.demandMshrHits::total        803690                       # number of demand (read+write) MSHR hits (Count)
system.cpu.dcache.overallMshrHits::cpu.data       803690                       # number of overall MSHR hits (Count)
system.cpu.dcache.overallMshrHits::total       803690                       # number of overall MSHR hits (Count)
system.cpu.dcache.demandMshrMisses::cpu.data      7101294                       # number of demand (read+write) MSHR misses (Count)
system.cpu.dcache.demandMshrMisses::total      7101294                       # number of demand (read+write) MSHR misses (Count)
system.cpu.dcache.overallMshrMisses::cpu.data      7101294                       # number of overall MSHR misses (Count)
system.cpu.dcache.overallMshrMisses::total      7101294                       # number of overall MSHR misses (Count)
system.cpu.dcache.demandMshrMissLatency::cpu.data 664361545000                       # number of demand (read+write) MSHR miss ticks (Tick)
system.cpu.dcache.demandMshrMissLatency::total 664361545000                       # number of demand (read+write) MSHR miss ticks (Tick)
system.cpu.dcache.overallMshrMissLatency::cpu.data 664361545000                       # number of overall MSHR miss ticks (Tick)
system.cpu.dcache.overallMshrMissLatency::total 664361545000                       # number of overall MSHR miss ticks (Tick)
system.cpu.dcache.demandMshrMissRate::cpu.data     0.024426                       # mshr miss ratio for demand accesses (Ratio)
system.cpu.dcache.demandMshrMissRate::total     0.024426                       # mshr miss ratio for demand accesses (Ratio)
system.cpu.dcache.overallMshrMissRate::cpu.data     0.024426                       # mshr miss ratio for overall accesses (Ratio)
system.cpu.dcache.overallMshrMissRate::total     0.024426                       # mshr miss ratio for overall accesses (Ratio)
system.cpu.dcache.demandAvgMshrMissLatency::cpu.data 93554.997864                       # average overall mshr miss latency ((Tick/Count))
system.cpu.dcache.demandAvgMshrMissLatency::total 93554.997864                       # average overall mshr miss latency ((Tick/Count))
system.cpu.dcache.overallAvgMshrMissLatency::cpu.data 93554.997864                       # average overall mshr miss latency ((Tick/Count))
system.cpu.dcache.overallAvgMshrMissLatency::total 93554.997864                       # average overall mshr miss latency ((Tick/Count))
system.cpu.dcache.replacements                3274689                       # number of replacements (Count)
system.cpu.dcache.CleanInvalidReq.missLatency::cpu.data 206581935000                       # number of CleanInvalidReq miss ticks (Tick)
system.cpu.dcache.CleanInvalidReq.missLatency::total 206581935000                       # number of CleanInvalidReq miss ticks (Tick)
system.cpu.dcache.CleanInvalidReq.avgMissLatency::cpu.data          inf                       # average CleanInvalidReq miss latency ((Tick/Count))
system.cpu.dcache.CleanInvalidReq.avgMissLatency::total          inf                       # average CleanInvalidReq miss latency ((Tick/Count))
system.cpu.dcache.CleanInvalidReq.mshrMisses::cpu.data      7015580                       # number of CleanInvalidReq MSHR misses (Count)
system.cpu.dcache.CleanInvalidReq.mshrMisses::total      7015580                       # number of CleanInvalidReq MSHR misses (Count)
system.cpu.dcache.CleanInvalidReq.mshrMissLatency::cpu.data 364810775000                       # number of CleanInvalidReq MSHR miss ticks (Tick)
system.cpu.dcache.CleanInvalidReq.mshrMissLatency::total 364810775000                       # number of CleanInvalidReq MSHR miss ticks (Tick)
system.cpu.dcache.CleanInvalidReq.mshrMissRate::cpu.data          inf                       # mshr miss rate for CleanInvalidReq accesses (Ratio)
system.cpu.dcache.CleanInvalidReq.mshrMissRate::total          inf                       # mshr miss rate for CleanInvalidReq accesses (Ratio)
system.cpu.dcache.CleanInvalidReq.avgMshrMissLatency::cpu.data 52000.087662                       # average CleanInvalidReq mshr miss latency ((Tick/Count))
system.cpu.dcache.CleanInvalidReq.avgMshrMissLatency::total 52000.087662                       # average CleanInvalidReq mshr miss latency ((Tick/Count))
system.cpu.dcache.ReadReq.hits::cpu.data    120140257                       # number of ReadReq hits (Count)
system.cpu.dcache.ReadReq.hits::total       120140257                       # number of ReadReq hits (Count)
system.cpu.dcache.ReadReq.misses::cpu.data      7902759                       # number of ReadReq misses (Count)
system.cpu.dcache.ReadReq.misses::total       7902759                       # number of ReadReq misses (Count)
system.cpu.dcache.ReadReq.missLatency::cpu.data 702285104000                       # number of ReadReq miss ticks (Tick)
system.cpu.dcache.ReadReq.missLatency::total 702285104000                       # number of ReadReq miss ticks (Tick)
system.cpu.dcache.ReadReq.accesses::cpu.data    128043016                       # number of ReadReq accesses(hits+misses) (Count)
system.cpu.dcache.ReadReq.accesses::total    128043016                       # number of ReadReq accesses(hits+misses) (Count)
system.cpu.dcache.ReadReq.missRate::cpu.data     0.061720                       # miss rate for ReadReq accesses (Ratio)
system.cpu.dcache.ReadReq.missRate::total     0.061720                       # miss rate for ReadReq accesses (Ratio)
[...]
system.mem_ctrl.dram.numReads::cpu.inst           572                       # Number of read requests responded to by this memory (Count)
system.mem_ctrl.dram.numReads::cpu.data       7017863                       # Number of read requests responded to by this memory (Count)
system.mem_ctrl.dram.numReads::total          7018435                       # Number of read requests responded to by this memory (Count)
system.mem_ctrl.dram.numWrites::writebacks          257                       # Number of write requests responded to by this memory (Count)
system.mem_ctrl.dram.numWrites::total             257                       # Number of write requests responded to by this memory (Count)
system.mem_ctrl.dram.bwRead::cpu.inst           16658                       # Total read bandwidth from this memory ((Byte/Second))
system.mem_ctrl.dram.bwRead::cpu.data       204380787                       # Total read bandwidth from this memory ((Byte/Second))
system.mem_ctrl.dram.bwRead::total          204397445                       # Total read bandwidth from this memory ((Byte/Second))
system.mem_ctrl.dram.bwInstRead::cpu.inst        16658                       # Instruction read bandwidth from this memory ((Byte/Second))
system.mem_ctrl.dram.bwInstRead::total          16658                       # Instruction read bandwidth from this memory ((Byte/Second))
system.mem_ctrl.dram.bwWrite::writebacks         7485                       # Write bandwidth from this memory ((Byte/Second))
system.mem_ctrl.dram.bwWrite::total              7485                       # Write bandwidth from this memory ((Byte/Second))
system.mem_ctrl.dram.bwTotal::writebacks         7485                       # Total bandwidth to/from this memory ((Byte/Second))
system.mem_ctrl.dram.bwTotal::cpu.inst          16658                       # Total bandwidth to/from this memory ((Byte/Second))
system.mem_ctrl.dram.bwTotal::cpu.data      204380787                       # Total bandwidth to/from this memory ((Byte/Second))
system.mem_ctrl.dram.bwTotal::total         204404930                       # Total bandwidth to/from this memory ((Byte/Second))
system.mem_ctrl.dram.readBursts               5791935                       # Number of DRAM read bursts (Count)
system.mem_ctrl.dram.writeBursts                  236                       # Number of DRAM write bursts (Count)
system.mem_ctrl.dram.perBankRdBursts::0        392702                       # Per bank write bursts (Count)
system.mem_ctrl.dram.perBankRdBursts::1        392633                       # Per bank write bursts (Count)
system.mem_ctrl.dram.perBankRdBursts::2        392669                       # Per bank write bursts (Count)
system.mem_ctrl.dram.perBankRdBursts::3        392631                       # Per bank write bursts (Count)
system.mem_ctrl.dram.perBankRdBursts::4        392608                       # Per bank write bursts (Count)
system.mem_ctrl.dram.perBankRdBursts::5        392617                       # Per bank write bursts (Count)
system.mem_ctrl.dram.perBankRdBursts::6         98347                       # Per bank write bursts (Count)
system.mem_ctrl.dram.perBankRdBursts::7        196420                       # Per bank write bursts (Count)
system.mem_ctrl.dram.perBankRdBursts::8        392659                       # Per bank write bursts (Count)
system.mem_ctrl.dram.perBankRdBursts::9        392658                       # Per bank write bursts (Count)
system.mem_ctrl.dram.perBankRdBursts::10       392708                       # Per bank write bursts (Count)
system.mem_ctrl.dram.perBankRdBursts::11       392690                       # Per bank write bursts (Count)
system.mem_ctrl.dram.perBankRdBursts::12       392633                       # Per bank write bursts (Count)
system.mem_ctrl.dram.perBankRdBursts::13       392658                       # Per bank write bursts (Count)
system.mem_ctrl.dram.perBankRdBursts::14       392642                       # Per bank write bursts (Count)
system.mem_ctrl.dram.perBankRdBursts::15       392660                       # Per bank write bursts (Count)
system.mem_ctrl.dram.perBankWrBursts::0            16                       # Per bank write bursts (Count)
system.mem_ctrl.dram.perBankWrBursts::1            16                       # Per bank write bursts (Count)
system.mem_ctrl.dram.perBankWrBursts::2            16                       # Per bank write bursts (Count)
system.mem_ctrl.dram.perBankWrBursts::3            16                       # Per bank write bursts (Count)
system.mem_ctrl.dram.perBankWrBursts::4            16                       # Per bank write bursts (Count)
system.mem_ctrl.dram.perBankWrBursts::5            16                       # Per bank write bursts (Count)
system.mem_ctrl.dram.perBankWrBursts::6             4                       # Per bank write bursts (Count)
system.mem_ctrl.dram.perBankWrBursts::7             8                       # Per bank write bursts (Count)
system.mem_ctrl.dram.perBankWrBursts::8            16                       # Per bank write bursts (Count)
system.mem_ctrl.dram.perBankWrBursts::9            16                       # Per bank write bursts (Count)
system.mem_ctrl.dram.perBankWrBursts::10           16                       # Per bank write bursts (Count)
system.mem_ctrl.dram.perBankWrBursts::11           16                       # Per bank write bursts (Count)
system.mem_ctrl.dram.perBankWrBursts::12           16                       # Per bank write bursts (Count)
system.mem_ctrl.dram.perBankWrBursts::13           16                       # Per bank write bursts (Count)
system.mem_ctrl.dram.perBankWrBursts::14           16                       # Per bank write bursts (Count)
system.mem_ctrl.dram.perBankWrBursts::15           16                       # Per bank write bursts (Count)
system.mem_ctrl.dram.totQLat              44710227500                       # Total ticks spent queuing (Tick)
system.mem_ctrl.dram.totBusLat            28959675000                       # Total ticks spent in databus transfers (Tick)
system.mem_ctrl.dram.totMemAccLat        153309008750                       # Total ticks spent from burst creation until serviced by the DRAM (Tick)
system.mem_ctrl.dram.avgQLat                  7719.39                       # Average queueing delay per DRAM burst ((Tick/Count))
system.mem_ctrl.dram.avgBusLat                5000.00                       # Average bus latency per DRAM burst ((Tick/Count))
system.mem_ctrl.dram.avgMemAccLat            26469.39                       # Average memory access latency per DRAM burst ((Tick/Count))
system.mem_ctrl.dram.readRowHits              3483068                       # Number of row buffer hits during reads (Count)
system.mem_ctrl.dram.writeRowHits                 217                       # Number of row buffer hits during writes (Count)
system.mem_ctrl.dram.readRowHitRate             60.14                       # Row buffer hit rate for reads (Ratio)
system.mem_ctrl.dram.writeRowHitRate            91.95                       # Row buffer hit rate for writes (Ratio)
system.mem_ctrl.dram.bytesPerActivate::samples      2308880                       # Bytes accessed per row activation (Byte)
system.mem_ctrl.dram.bytesPerActivate::mean   160.553300                       # Bytes accessed per row activation (Byte)
system.mem_ctrl.dram.bytesPerActivate::gmean   146.467835                       # Bytes accessed per row activation (Byte)
system.mem_ctrl.dram.bytesPerActivate::stdev    65.583737                       # Bytes accessed per row activation (Byte)
system.mem_ctrl.dram.bytesPerActivate::0-127       335983     14.55%     14.55% # Bytes accessed per row activation (Byte)
system.mem_ctrl.dram.bytesPerActivate::128-255      1396795     60.50%     75.05% # Bytes accessed per row activation (Byte)
system.mem_ctrl.dram.bytesPerActivate::256-383       575865     24.94%     99.99% # Bytes accessed per row activation (Byte)
system.mem_ctrl.dram.bytesPerActivate::384-511           96      0.00%     99.99% # Bytes accessed per row activation (Byte)
system.mem_ctrl.dram.bytesPerActivate::512-639            9      0.00%     99.99% # Bytes accessed per row activation (Byte)
system.mem_ctrl.dram.bytesPerActivate::640-767           10      0.00%     99.99% # Bytes accessed per row activation (Byte)
system.mem_ctrl.dram.bytesPerActivate::768-895            5      0.00%     99.99% # Bytes accessed per row activation (Byte)
system.mem_ctrl.dram.bytesPerActivate::896-1023            7      0.00%    100.00% # Bytes accessed per row activation (Byte)
system.mem_ctrl.dram.bytesPerActivate::1024-1151          110      0.00%    100.00% # Bytes accessed per row activation (Byte)
system.mem_ctrl.dram.bytesPerActivate::total      2308880                       # Bytes accessed per row activation (Byte)
system.mem_ctrl.dram.bytesRead              370683840                       # Total bytes read (Byte)
system.mem_ctrl.dram.bytesWritten               15104                       # Total bytes written (Byte)
system.mem_ctrl.dram.avgRdBW               168.678162                       # Average DRAM read bandwidth in MiBytes/s ((Byte/Second))
system.mem_ctrl.dram.avgWrBW                 0.006873                       # Average DRAM write bandwidth in MiBytes/s ((Byte/Second))
system.mem_ctrl.dram.peakBW                  12800.00                       # Theoretical peak bandwidth in MiByte/s ((Byte/Second))
system.mem_ctrl.dram.busUtil                     1.32                       # Data bus utilization in percentage (Ratio)
system.mem_ctrl.dram.busUtilRead                 1.32                       # Data bus utilization in percentage for reads (Ratio)
system.mem_ctrl.dram.busUtilWrite                0.00                       # Data bus utilization in percentage for writes (Ratio)
system.mem_ctrl.dram.pageHitRate                60.14                       # Row buffer hit rate, read and write combined (Ratio)
system.mem_ctrl.dram.power_state.pwrStateResidencyTicks::UNDEFINED 2197580503000                       # Cumulative time (in ticks) in various power states (Tick)
system.mem_ctrl.dram.rank0.actEnergy       7802977560                       # Energy for activate commands per rank (pJ) (Joule)
system.mem_ctrl.dram.rank0.preEnergy       4147369545                       # Energy for precharge commands per rank (pJ) (Joule)
system.mem_ctrl.dram.rank0.readEnergy     18925476780                       # Energy for read commands per rank (pJ) (Joule)
system.mem_ctrl.dram.rank0.writeEnergy         563760                       # Energy for write commands per rank (pJ) (Joule)
system.mem_ctrl.dram.rank0.refreshEnergy 173474764320.000031                       # Energy for refresh commands per rank (pJ) (Joule)
system.mem_ctrl.dram.rank0.actBackEnergy 558288981210                       # Energy for active background per rank (pJ) (Joule)
system.mem_ctrl.dram.rank0.preBackEnergy 373732824000                       # Energy for precharge background per rank (pJ) (Joule)
system.mem_ctrl.dram.rank0.actPowerDownEnergy            0                       # Energy for active power-down per rank (pJ) (Joule)
system.mem_ctrl.dram.rank0.prePowerDownEnergy            0                       # Energy for precharge power-down per rank (pJ) (Joule)
system.mem_ctrl.dram.rank0.selfRefreshEnergy            0                       # Energy for self refresh per rank (pJ) (Joule)
system.mem_ctrl.dram.rank0.totalEnergy   1136372957175                       # Total energy per rank (pJ) (Joule)
system.mem_ctrl.dram.rank0.averagePower    517.101856                       # Core power per rank (mW) (Watt)
system.mem_ctrl.dram.rank0.totalIdleTime            0                       # Total Idle time Per DRAM Rank (Tick)
system.mem_ctrl.dram.rank0.pwrStateTime::IDLE 967010804000                       # Time in different power states (Tick)
system.mem_ctrl.dram.rank0.pwrStateTime::REF  73381880000                       # Time in different power states (Tick)
system.mem_ctrl.dram.rank0.pwrStateTime::SREF            0                       # Time in different power states (Tick)
system.mem_ctrl.dram.rank0.pwrStateTime::PRE_PDN            0                       # Time in different power states (Tick)
system.mem_ctrl.dram.rank0.pwrStateTime::ACT 1157187819000                       # Time in different power states (Tick)
system.mem_ctrl.dram.rank0.pwrStateTime::ACT_PDN            0                       # Time in different power states (Tick)
system.mem_ctrl.dram.rank1.actEnergy       8682468480                       # Energy for activate commands per rank (pJ) (Joule)
system.mem_ctrl.dram.rank1.preEnergy       4614830055                       # Energy for precharge commands per rank (pJ) (Joule)
system.mem_ctrl.dram.rank1.readEnergy     22428939120                       # Energy for read commands per rank (pJ) (Joule)
system.mem_ctrl.dram.rank1.writeEnergy         668160                       # Energy for write commands per rank (pJ) (Joule)
system.mem_ctrl.dram.rank1.refreshEnergy 173474764320.000031                       # Energy for refresh commands per rank (pJ) (Joule)
system.mem_ctrl.dram.rank1.actBackEnergy 556896747660                       # Energy for active background per rank (pJ) (Joule)
system.mem_ctrl.dram.rank1.preBackEnergy 374905231200                       # Energy for precharge background per rank (pJ) (Joule)
system.mem_ctrl.dram.rank1.actPowerDownEnergy            0                       # Energy for active power-down per rank (pJ) (Joule)
system.mem_ctrl.dram.rank1.prePowerDownEnergy            0                       # Energy for precharge power-down per rank (pJ) (Joule)
system.mem_ctrl.dram.rank1.selfRefreshEnergy            0                       # Energy for self refresh per rank (pJ) (Joule)
system.mem_ctrl.dram.rank1.totalEnergy   1141003648995                       # Total energy per rank (pJ) (Joule)
system.mem_ctrl.dram.rank1.averagePower    519.209033                       # Core power per rank (mW) (Watt)
system.mem_ctrl.dram.rank1.totalIdleTime            0                       # Total Idle time Per DRAM Rank (Tick)
system.mem_ctrl.dram.rank1.pwrStateTime::IDLE 969975335000                       # Time in different power states (Tick)
system.mem_ctrl.dram.rank1.pwrStateTime::REF  73381880000                       # Time in different power states (Tick)
system.mem_ctrl.dram.rank1.pwrStateTime::SREF            0                       # Time in different power states (Tick)
system.mem_ctrl.dram.rank1.pwrStateTime::PRE_PDN            0                       # Time in different power states (Tick)
system.mem_ctrl.dram.rank1.pwrStateTime::ACT 1154223288000                       # Time in different power states (Tick)
system.mem_ctrl.dram.rank1.pwrStateTime::ACT_PDN            0                       # Time in different power states (Tick)
system.mem_ctrl.power_state.pwrStateResidencyTicks::UNDEFINED 2197580503000                       # Cumulative time (in ticks) in various power states (Tick)
system.membus.transDist::ReadResp             7016256                       # Transaction distribution (Count)
system.membus.transDist::WriteClean               257                       # Transaction distribution (Count)
system.membus.transDist::CleanEvict                 5                       # Transaction distribution (Count)
system.membus.transDist::ReadExReq               2178                       # Transaction distribution (Count)
system.membus.transDist::ReadExResp              2178                       # Transaction distribution (Count)
system.membus.transDist::ReadSharedReq        7016257                       # Transaction distribution (Count)
system.membus.transDist::CleanInvalidReq      7015580                       # Transaction distribution (Count)
system.membus.pktCount_system.l2cache.mem_side_port::system.mem_ctrl.port     21052711                       # Packet count per connected requestor and responder (Count)
system.membus.pktCount_system.l2cache.mem_side_port::total     21052711                       # Packet count per connected requestor and responder (Count)
system.membus.pktCount::total                21052711                       # Packet count per connected requestor and responder (Count)
system.membus.pktSize_system.l2cache.mem_side_port::system.mem_ctrl.port    449196224                       # Cumulative packet size per connected requestor and responder (Byte)
system.membus.pktSize_system.l2cache.mem_side_port::total    449196224                       # Cumulative packet size per connected requestor and responder (Byte)
system.membus.pktSize::total                449196224                       # Cumulative packet size per connected requestor and responder (Byte)
system.membus.snoops                                0                       # Total snoops (Count)
system.membus.snoopTraffic                          0                       # Total snoop traffic (Byte)
system.membus.snoopFanout::samples           14034015                       # Request fanout histogram (Count)
system.membus.snoopFanout::mean                     0                       # Request fanout histogram (Count)
system.membus.snoopFanout::stdev                    0                       # Request fanout histogram (Count)
system.membus.snoopFanout::underflows               0      0.00%      0.00% # Request fanout histogram (Count)
system.membus.snoopFanout::0                 14034015    100.00%    100.00% # Request fanout histogram (Count)
system.membus.snoopFanout::1                        0      0.00%    100.00% # Request fanout histogram (Count)
system.membus.snoopFanout::overflows                0      0.00%    100.00% # Request fanout histogram (Count)
system.membus.snoopFanout::min_value                0                       # Request fanout histogram (Count)
system.membus.snoopFanout::max_value                0                       # Request fanout histogram (Count)
system.membus.snoopFanout::total             14034015                       # Request fanout histogram (Count)
system.membus.power_state.pwrStateResidencyTicks::UNDEFINED 2197580503000                       # Cumulative time (in ticks) in various power states (Tick)
system.membus.reqLayer2.occupancy         14035305000                       # Layer occupancy (ticks) (Tick)
system.membus.reqLayer2.utilization               0.0                       # Layer utilization (Ratio)
system.membus.respLayer0.occupancy        37101702500                       # Layer occupancy (ticks) (Tick)
system.membus.respLayer0.utilization              0.0                       # Layer utilization (Ratio)
system.membus.snoop_filter.totRequests       14034020                       # Total number of requests made to the snoop filter. (Count)
system.membus.snoop_filter.hitSingleRequests      7015585                       # Number of requests hitting in the snoop filter with a single holder of the requested data. (Count)
system.membus.snoop_filter.hitMultiRequests            0                       # Number of requests hitting in the snoop filter with multiple (>1) holders of the requested data. (Count)
system.membus.snoop_filter.totSnoops                0                       # Total number of snoops made to the snoop filter. (Count)
system.membus.snoop_filter.hitSingleSnoops            0                       # Number of snoops hitting in the snoop filter with a single holder of the requested data. (Count)
system.membus.snoop_filter.hitMultiSnoops            0                       # Number of snoops hitting in the snoop filter with multiple (>1) holders of the requested data. (Count)
system.workload.inst.arm                            0                       # number of arm instructions executed (Count)
system.workload.inst.quiesce                        0                       # number of quiesce instructions executed (Count)

---------- End Simulation Statistics   ----------
