
---------- Begin Simulation Statistics ----------
simSeconds                                   0.310865                       # Number of seconds simulated (Second)
simTicks                                 310864621000                       # Number of ticks simulated (Tick)
finalTick                                310864621000                       # Number of ticks from beginning of simulation (restored from checkpoints and never reset) (Tick)
simFreq                                  1000000000000                       # The number of ticks per simulated second ((Tick/Second))
hostSeconds                                    449.05                       # Real time elapsed on the host (Second)
hostTickRate                                692276811                       # The number of ticks simulated per host second (ticks/s) ((Tick/Second))
hostMemory                                     726228                       # Number of bytes of host memory used (Byte)
simInsts                                    134920327                       # Number of instructions simulated (Count)
simOps                                      230799354                       # Number of ops (including micro ops) simulated (Count)
hostInstRate                                   300459                       # Simulator instruction rate (inst/s) ((Count/Second))
hostOpRate                                     513976                       # Simulator op (including micro ops) rate (op/s) ((Count/Second))
system.clk_domain.clock                          1000                       # Clock period in ticks (Tick)
system.clk_domain.voltage_domain.voltage            1                       # Voltage in Volts (Volt)
system.cpu.numCycles                        310864622                       # Number of cpu cycles simulated (Cycle)
system.cpu.cpi                               2.304061                       # CPI: cycles per instruction (core level) ((Cycle/Count))
system.cpu.ipc                               0.434016                       # IPC: instructions per cycle (core level) ((Count/Cycle))
system.cpu.numWorkItemsStarted                      0                       # Number of work items this cpu started (Count)
system.cpu.numWorkItemsCompleted                    0                       # Number of work items this cpu completed (Count)
system.cpu.instsAdded                       322210923                       # Number of instructions added to the IQ (excludes non-spec) (Count)
system.cpu.nonSpecInstsAdded                  6515382                       # Number of non-speculative instructions added to the IQ (Count)
system.cpu.instsIssued                      270823564                       # Number of instructions issued (Count)
system.cpu.squashedInstsIssued                 766681                       # Number of squashed instructions issued (Count)
system.cpu.squashedInstsExamined             97926869                       # Number of squashed instructions iterated over during squash; mainly for profiling (Count)
system.cpu.squashedOperandsExamined         270494259                       # Number of squashed operands that are examined and possibly removed from graph (Count)
system.cpu.squashedNonSpecRemoved             3660936                       # Number of squashed non-spec instructions that were removed (Count)
system.cpu.numIssuedDist::samples           310839875                       # Number of insts issued each cycle (Count)
system.cpu.numIssuedDist::mean               0.871264                       # Number of insts issued each cycle (Count)
system.cpu.numIssuedDist::stdev              1.421567                       # Number of insts issued each cycle (Count)
system.cpu.numIssuedDist::underflows                0      0.00%      0.00% # Number of insts issued each cycle (Count)
system.cpu.numIssuedDist::0                 201214271     64.73%     64.73% # Number of insts issued each cycle (Count)
system.cpu.numIssuedDist::1                  28116758      9.05%     73.78% # Number of insts issued each cycle (Count)
system.cpu.numIssuedDist::2                  33377565     10.74%     84.52% # Number of insts issued each cycle (Count)
system.cpu.numIssuedDist::3                  29932992      9.63%     94.15% # Number of insts issued each cycle (Count)
system.cpu.numIssuedDist::4                  11600849      3.73%     97.88% # Number of insts issued each cycle (Count)
system.cpu.numIssuedDist::5                   3081143      0.99%     98.87% # Number of insts issued each cycle (Count)
system.cpu.numIssuedDist::6                   1106342      0.36%     99.22% # Number of insts issued each cycle (Count)
system.cpu.numIssuedDist::7                   1574103      0.51%     99.73% # Number of insts issued each cycle (Count)
system.cpu.numIssuedDist::8                    835852      0.27%    100.00% # Number of insts issued each cycle (Count)
system.cpu.numIssuedDist::overflows                 0      0.00%    100.00% # Number of insts issued each cycle (Count)
system.cpu.numIssuedDist::min_value                 0                       # Number of insts issued each cycle (Count)
system.cpu.numIssuedDist::max_value                 8                       # Number of insts issued each cycle (Count)
system.cpu.numIssuedDist::total             310839875                       # Number of insts issued each cycle (Count)
system.cpu.statFuBusy::No_OpClass                   0      0.00%      0.00% # attempts to use FU when none available (Count)
system.cpu.statFuBusy::IntAlu                   23985      2.64%      2.64% # attempts to use FU when none available (Count)
system.cpu.statFuBusy::IntMult                      0      0.00%      2.64% # attempts to use FU when none available (Count)
system.cpu.statFuBusy::IntDiv                       0      0.00%      2.64% # attempts to use FU when none available (Count)
system.cpu.statFuBusy::FloatAdd                     0      0.00%      2.64% # attempts to use FU when none available (Count)
system.cpu.statFuBusy::FloatCmp                     0      0.00%      2.64% # attempts to use FU when none available (Count)
system.cpu.statFuBusy::FloatCvt                     0      0.00%      2.64% # attempts to use FU when none available (Count)
system.cpu.statFuBusy::FloatMult                    0      0.00%      2.64% # attempts to use FU when none available (Count)
system.cpu.statFuBusy::FloatMultAcc                 0      0.00%      2.64% # attempts to use FU when none available (Count)
system.cpu.statFuBusy::FloatDiv                     0      0.00%      2.64% # attempts to use FU when none available (Count)
system.cpu.statFuBusy::FloatMisc                    0      0.00%      2.64% # attempts to use FU when none available (Count)
system.cpu.statFuBusy::FloatSqrt                    0      0.00%      2.64% # attempts to use FU when none available (Count)
system.cpu.statFuBusy::SimdAdd                      0      0.00%      2.64% # attempts to use FU when none available (Count)
system.cpu.statFuBusy::SimdAddAcc                   0      0.00%      2.64% # attempts to use FU when none available (Count)
system.cpu.statFuBusy::SimdAlu                      9      0.00%      2.64% # attempts to use FU when none available (Count)
system.cpu.statFuBusy::SimdCmp                      0      0.00%      2.64% # attempts to use FU when none available (Count)
system.cpu.statFuBusy::SimdCvt                      2      0.00%      2.64% # attempts to use FU when none available (Count)
system.cpu.statFuBusy::SimdMisc                     1      0.00%      2.64% # attempts to use FU when none available (Count)
system.cpu.statFuBusy::SimdMult                     0      0.00%      2.64% # attempts to use FU when none available (Count)
system.cpu.statFuBusy::SimdMultAcc                  0      0.00%      2.64% # attempts to use FU when none available (Count)
system.cpu.statFuBusy::SimdMatMultAcc               0      0.00%      2.64% # attempts to use FU when none available (Count)
system.cpu.statFuBusy::SimdShift                    0      0.00%      2.64% # attempts to use FU when none available (Count)
system.cpu.statFuBusy::SimdShiftAcc                 0      0.00%      2.64% # attempts to use FU when none available (Count)
system.cpu.statFuBusy::SimdDiv                      0      0.00%      2.64% # attempts to use FU when none available (Count)
system.cpu.statFuBusy::SimdSqrt                     0      0.00%      2.64% # attempts to use FU when none available (Count)
system.cpu.statFuBusy::SimdFloatAdd                 0      0.00%      2.64% # attempts to use FU when none available (Count)
system.cpu.statFuBusy::SimdFloatAlu                 0      0.00%      2.64% # attempts to use FU when none available (Count)
system.cpu.statFuBusy::SimdFloatCmp                 0      0.00%      2.64% # attempts to use FU when none available (Count)
system.cpu.statFuBusy::SimdFloatCvt                 0      0.00%      2.64% # attempts to use FU when none available (Count)
system.cpu.statFuBusy::SimdFloatDiv                 0      0.00%      2.64% # attempts to use FU when none available (Count)
system.cpu.statFuBusy::SimdFloatMisc                0      0.00%      2.64% # attempts to use FU when none available (Count)
system.cpu.statFuBusy::SimdFloatMult                0      0.00%      2.64% # attempts to use FU when none available (Count)
system.cpu.statFuBusy::SimdFloatMultAcc             0      0.00%      2.64% # attempts to use FU when none available (Count)
system.cpu.statFuBusy::SimdFloatMatMultAcc            0      0.00%      2.64% # attempts to use FU when none available (Count)
system.cpu.statFuBusy::SimdFloatSqrt                0      0.00%      2.64% # attempts to use FU when none available (Count)
system.cpu.statFuBusy::SimdReduceAdd                0      0.00%      2.64% # attempts to use FU when none available (Count)
system.cpu.statFuBusy::SimdReduceAlu                0      0.00%      2.64% # attempts to use FU when none available (Count)
system.cpu.statFuBusy::SimdReduceCmp                0      0.00%      2.64% # attempts to use FU when none available (Count)
system.cpu.statFuBusy::SimdFloatReduceAdd            0      0.00%      2.64% # attempts to use FU when none available (Count)
system.cpu.statFuBusy::SimdFloatReduceCmp            0      0.00%      2.64% # attempts to use FU when none available (Count)
system.cpu.statFuBusy::SimdAes                      0      0.00%      2.64% # attempts to use FU when none available (Count)
system.cpu.statFuBusy::SimdAesMix                   0      0.00%      2.64% # attempts to use FU when none available (Count)
system.cpu.statFuBusy::SimdSha1Hash                 0      0.00%      2.64% # attempts to use FU when none available (Count)
system.cpu.statFuBusy::SimdSha1Hash2                0      0.00%      2.64% # attempts to use FU when none available (Count)
system.cpu.statFuBusy::SimdSha256Hash               0      0.00%      2.64% # attempts to use FU when none available (Count)
system.cpu.statFuBusy::SimdSha256Hash2              0      0.00%      2.64% # attempts to use FU when none available (Count)
system.cpu.statFuBusy::SimdShaSigma2                0      0.00%      2.64% # attempts to use FU when none available (Count)
system.cpu.statFuBusy::SimdShaSigma3                0      0.00%      2.64% # attempts to use FU when none available (Count)
system.cpu.statFuBusy::SimdPredAlu                  0      0.00%      2.64% # attempts to use FU when none available (Count)
system.cpu.statFuBusy::Matrix                       0      0.00%      2.64% # attempts to use FU when none available (Count)
system.cpu.statFuBusy::MatrixMov                    0      0.00%      2.64% # attempts to use FU when none available (Count)
system.cpu.statFuBusy::MatrixOP                     0      0.00%      2.64% # attempts to use FU when none available (Count)
system.cpu.statFuBusy::MemRead                 884342     97.30%     99.94% # attempts to use FU when none available (Count)
system.cpu.statFuBusy::MemWrite                   490      0.05%    100.00% # attempts to use FU when none available (Count)
system.cpu.statFuBusy::FloatMemRead                 2      0.00%    100.00% # attempts to use FU when none available (Count)
system.cpu.statFuBusy::FloatMemWrite               13      0.00%    100.00% # attempts to use FU when none available (Count)
system.cpu.statFuBusy::IprAccess                    0      0.00%    100.00% # attempts to use FU when none available (Count)
system.cpu.statFuBusy::InstPrefetch                 0      0.00%    100.00% # attempts to use FU when none available (Count)
system.cpu.statFuBusy::VectorUnitStrideLoad            0      0.00%    100.00% # attempts to use FU when none available (Count)
system.cpu.statFuBusy::VectorUnitStrideStore            0      0.00%    100.00% # attempts to use FU when none available (Count)
system.cpu.statFuBusy::VectorUnitStrideMaskLoad            0      0.00%    100.00% # attempts to use FU when none available (Count)
system.cpu.statFuBusy::VectorUnitStrideMaskStore            0      0.00%    100.00% # attempts to use FU when none available (Count)
system.cpu.statFuBusy::VectorStridedLoad            0      0.00%    100.00% # attempts to use FU when none available (Count)
system.cpu.statFuBusy::VectorStridedStore            0      0.00%    100.00% # attempts to use FU when none available (Count)
system.cpu.statFuBusy::VectorIndexedLoad            0      0.00%    100.00% # attempts to use FU when none available (Count)
system.cpu.statFuBusy::VectorIndexedStore            0      0.00%    100.00% # attempts to use FU when none available (Count)
system.cpu.statFuBusy::VectorUnitStrideFaultOnlyFirstLoad            0      0.00%    100.00% # attempts to use FU when none available (Count)
system.cpu.statFuBusy::VectorWholeRegisterLoad            0      0.00%    100.00% # attempts to use FU when none available (Count)
system.cpu.statFuBusy::VectorWholeRegisterStore            0      0.00%    100.00% # attempts to use FU when none available (Count)
system.cpu.statFuBusy::VectorIntegerArith            0      0.00%    100.00% # attempts to use FU when none available (Count)
system.cpu.statFuBusy::VectorFloatArith             0      0.00%    100.00% # attempts to use FU when none available (Count)
system.cpu.statFuBusy::VectorFloatConvert            0      0.00%    100.00% # attempts to use FU when none available (Count)
system.cpu.statFuBusy::VectorIntegerReduce            0      0.00%    100.00% # attempts to use FU when none available (Count)
system.cpu.statFuBusy::VectorFloatReduce            0      0.00%    100.00% # attempts to use FU when none available (Count)
system.cpu.statFuBusy::VectorMisc                   0      0.00%    100.00% # attempts to use FU when none available (Count)
system.cpu.statFuBusy::VectorIntegerExtension            0      0.00%    100.00% # attempts to use FU when none available (Count)
system.cpu.statFuBusy::VectorConfig                 0      0.00%    100.00% # attempts to use FU when none available (Count)
system.cpu.statIssuedInstType_0::No_OpClass          917      0.00%      0.00% # Number of instructions issued per FU type, per thread (Count)
system.cpu.statIssuedInstType_0::IntAlu     194102392     71.67%     71.67% # Number of instructions issued per FU type, per thread (Count)
system.cpu.statIssuedInstType_0::IntMult      1026050      0.38%     72.05% # Number of instructions issued per FU type, per thread (Count)
system.cpu.statIssuedInstType_0::IntDiv         51434      0.02%     72.07% # Number of instructions issued per FU type, per thread (Count)
system.cpu.statIssuedInstType_0::FloatAdd          328      0.00%     72.07% # Number of instructions issued per FU type, per thread (Count)
system.cpu.statIssuedInstType_0::FloatCmp            0      0.00%     72.07% # Number of instructions issued per FU type, per thread (Count)
system.cpu.statIssuedInstType_0::FloatCvt            0      0.00%     72.07% # Number of instructions issued per FU type, per thread (Count)
system.cpu.statIssuedInstType_0::FloatMult            0      0.00%     72.07% # Number of instructions issued per FU type, per thread (Count)
system.cpu.statIssuedInstType_0::FloatMultAcc            0      0.00%     72.07% # Number of instructions issued per FU type, per thread (Count)
system.cpu.statIssuedInstType_0::FloatDiv            0      0.00%     72.07% # Number of instructions issued per FU type, per thread (Count)
system.cpu.statIssuedInstType_0::FloatMisc            0      0.00%     72.07% # Number of instructions issued per FU type, per thread (Count)
system.cpu.statIssuedInstType_0::FloatSqrt            0      0.00%     72.07% # Number of instructions issued per FU type, per thread (Count)
system.cpu.statIssuedInstType_0::SimdAdd            0      0.00%     72.07% # Number of instructions issued per FU type, per thread (Count)
system.cpu.statIssuedInstType_0::SimdAddAcc            0      0.00%     72.07% # Number of instructions issued per FU type, per thread (Count)
system.cpu.statIssuedInstType_0::SimdAlu         1608      0.00%     72.07% # Number of instructions issued per FU type, per thread (Count)
system.cpu.statIssuedInstType_0::SimdCmp            0      0.00%     72.07% # Number of instructions issued per FU type, per thread (Count)
system.cpu.statIssuedInstType_0::SimdCvt         1814      0.00%     72.07% # Number of instructions issued per FU type, per thread (Count)
system.cpu.statIssuedInstType_0::SimdMisc         3230      0.00%     72.07% # Number of instructions issued per FU type, per thread (Count)
system.cpu.statIssuedInstType_0::SimdMult            0      0.00%     72.07% # Number of instructions issued per FU type, per thread (Count)
system.cpu.statIssuedInstType_0::SimdMultAcc            0      0.00%     72.07% # Number of instructions issued per FU type, per thread (Count)
system.cpu.statIssuedInstType_0::SimdMatMultAcc            0      0.00%     72.07% # Number of instructions issued per FU type, per thread (Count)
system.cpu.statIssuedInstType_0::SimdShift            0      0.00%     72.07% # Number of instructions issued per FU type, per thread (Count)
system.cpu.statIssuedInstType_0::SimdShiftAcc            0      0.00%     72.07% # Number of instructions issued per FU type, per thread (Count)
system.cpu.statIssuedInstType_0::SimdDiv            0      0.00%     72.07% # Number of instructions issued per FU type, per thread (Count)
system.cpu.statIssuedInstType_0::SimdSqrt            0      0.00%     72.07% # Number of instructions issued per FU type, per thread (Count)
system.cpu.statIssuedInstType_0::SimdFloatAdd            0      0.00%     72.07% # Number of instructions issued per FU type, per thread (Count)
system.cpu.statIssuedInstType_0::SimdFloatAlu            0      0.00%     72.07% # Number of instructions issued per FU type, per thread (Count)
system.cpu.statIssuedInstType_0::SimdFloatCmp            0      0.00%     72.07% # Number of instructions issued per FU type, per thread (Count)
system.cpu.statIssuedInstType_0::SimdFloatCvt            0      0.00%     72.07% # Number of instructions issued per FU type, per thread (Count)
system.cpu.statIssuedInstType_0::SimdFloatDiv            0      0.00%     72.07% # Number of instructions issued per FU type, per thread (Count)
system.cpu.statIssuedInstType_0::SimdFloatMisc            0      0.00%     72.07% # Number of instructions issued per FU type, per thread (Count)
system.cpu.statIssuedInstType_0::SimdFloatMult            0      0.00%     72.07% # Number of instructions issued per FU type, per thread (Count)
system.cpu.statIssuedInstType_0::SimdFloatMultAcc            0      0.00%     72.07% # Number of instructions issued per FU type, per thread (Count)
system.cpu.statIssuedInstType_0::SimdFloatMatMultAcc            0      0.00%     72.07% # Number of instructions issued per FU type, per thread (Count)
system.cpu.statIssuedInstType_0::SimdFloatSqrt            0      0.00%     72.07% # Number of instructions issued per FU type, per thread (Count)
system.cpu.statIssuedInstType_0::SimdReduceAdd            0      0.00%     72.07% # Number of instructions issued per FU type, per thread (Count)
system.cpu.statIssuedInstType_0::SimdReduceAlu            0      0.00%     72.07% # Number of instructions issued per FU type, per thread (Count)
system.cpu.statIssuedInstType_0::SimdReduceCmp            0      0.00%     72.07% # Number of instructions issued per FU type, per thread (Count)
system.cpu.statIssuedInstType_0::SimdFloatReduceAdd            0      0.00%     72.07% # Number of instructions issued per FU type, per thread (Count)
system.cpu.statIssuedInstType_0::SimdFloatReduceCmp            0      0.00%     72.07% # Number of instructions issued per FU type, per thread (Count)
system.cpu.statIssuedInstType_0::SimdAes            0      0.00%     72.07% # Number of instructions issued per FU type, per thread (Count)
system.cpu.statIssuedInstType_0::SimdAesMix            0      0.00%     72.07% # Number of instructions issued per FU type, per thread (Count)
system.cpu.statIssuedInstType_0::SimdSha1Hash            0      0.00%     72.07% # Number of instructions issued per FU type, per thread (Count)
system.cpu.statIssuedInstType_0::SimdSha1Hash2            0      0.00%     72.07% # Number of instructions issued per FU type, per thread (Count)
system.cpu.statIssuedInstType_0::SimdSha256Hash            0      0.00%     72.07% # Number of instructions issued per FU type, per thread (Count)
system.cpu.statIssuedInstType_0::SimdSha256Hash2            0      0.00%     72.07% # Number of instructions issued per FU type, per thread (Count)
system.cpu.statIssuedInstType_0::SimdShaSigma2            0      0.00%     72.07% # Number of instructions issued per FU type, per thread (Count)
system.cpu.statIssuedInstType_0::SimdShaSigma3            0      0.00%     72.07% # Number of instructions issued per FU type, per thread (Count)
system.cpu.statIssuedInstType_0::SimdPredAlu            0      0.00%     72.07% # Number of instructions issued per FU type, per thread (Count)
system.cpu.statIssuedInstType_0::Matrix             0      0.00%     72.07% # Number of instructions issued per FU type, per thread (Count)
system.cpu.statIssuedInstType_0::MatrixMov            0      0.00%     72.07% # Number of instructions issued per FU type, per thread (Count)
system.cpu.statIssuedInstType_0::MatrixOP            0      0.00%     72.07% # Number of instructions issued per FU type, per thread (Count)
system.cpu.statIssuedInstType_0::MemRead     49494886     18.28%     90.35% # Number of instructions issued per FU type, per thread (Count)
system.cpu.statIssuedInstType_0::MemWrite     26139773      9.65%    100.00% # Number of instructions issued per FU type, per thread (Count)
system.cpu.statIssuedInstType_0::FloatMemRead          932      0.00%    100.00% # Number of instructions issued per FU type, per thread (Count)
system.cpu.statIssuedInstType_0::FloatMemWrite          200      0.00%    100.00% # Number of instructions issued per FU type, per thread (Count)
system.cpu.statIssuedInstType_0::IprAccess            0      0.00%    100.00% # Number of instructions issued per FU type, per thread (Count)
system.cpu.statIssuedInstType_0::InstPrefetch            0      0.00%    100.00% # Number of instructions issued per FU type, per thread (Count)
system.cpu.statIssuedInstType_0::VectorUnitStrideLoad            0      0.00%    100.00% # Number of instructions issued per FU type, per thread (Count)
system.cpu.statIssuedInstType_0::VectorUnitStrideStore            0      0.00%    100.00% # Number of instructions issued per FU type, per thread (Count)
system.cpu.statIssuedInstType_0::VectorUnitStrideMaskLoad            0      0.00%    100.00% # Number of instructions issued per FU type, per thread (Count)
system.cpu.statIssuedInstType_0::VectorUnitStrideMaskStore            0      0.00%    100.00% # Number of instructions issued per FU type, per thread (Count)
system.cpu.statIssuedInstType_0::VectorStridedLoad            0      0.00%    100.00% # Number of instructions issued per FU type, per thread (Count)
system.cpu.statIssuedInstType_0::VectorStridedStore            0      0.00%    100.00% # Number of instructions issued per FU type, per thread (Count)
system.cpu.statIssuedInstType_0::VectorIndexedLoad            0      0.00%    100.00% # Number of instructions issued per FU type, per thread (Count)
system.cpu.statIssuedInstType_0::VectorIndexedStore            0      0.00%    100.00% # Number of instructions issued per FU type, per thread (Count)
system.cpu.statIssuedInstType_0::VectorUnitStrideFaultOnlyFirstLoad            0      0.00%    100.00% # Number of instructions issued per FU type, per thread (Count)
system.cpu.statIssuedInstType_0::VectorWholeRegisterLoad            0      0.00%    100.00% # Number of instructions issued per FU type, per thread (Count)
system.cpu.statIssuedInstType_0::VectorWholeRegisterStore            0      0.00%    100.00% # Number of instructions issued per FU type, per thread (Count)
system.cpu.statIssuedInstType_0::VectorIntegerArith            0      0.00%    100.00% # Number of instructions issued per FU type, per thread (Count)
system.cpu.statIssuedInstType_0::VectorFloatArith            0      0.00%    100.00% # Number of instructions issued per FU type, per thread (Count)
system.cpu.statIssuedInstType_0::VectorFloatConvert            0      0.00%    100.00% # Number of instructions issued per FU type, per thread (Count)
system.cpu.statIssuedInstType_0::VectorIntegerReduce            0      0.00%    100.00% # Number of instructions issued per FU type, per thread (Count)
system.cpu.statIssuedInstType_0::VectorFloatReduce            0      0.00%    100.00% # Number of instructions issued per FU type, per thread (Count)
system.cpu.statIssuedInstType_0::VectorMisc            0      0.00%    100.00% # Number of instructions issued per FU type, per thread (Count)
system.cpu.statIssuedInstType_0::VectorIntegerExtension            0      0.00%    100.00% # Number of instructions issued per FU type, per thread (Count)
system.cpu.statIssuedInstType_0::VectorConfig            0      0.00%    100.00% # Number of instructions issued per FU type, per thread (Count)
system.cpu.statIssuedInstType_0::total      270823564                       # Number of instructions issued per FU type, per thread (Count)
system.cpu.issueRate                         0.871195                       # Inst issue rate ((Count/Cycle))
system.cpu.fuBusy                              908844                       # FU busy when requested (Count)
system.cpu.fuBusyRate                        0.003356                       # FU busy rate (busy events/executed inst) ((Count/Count))
system.cpu.intInstQueueReads                854143969                       # Number of integer instruction queue reads (Count)
system.cpu.intInstQueueWrites               427783038                       # Number of integer instruction queue writes (Count)
system.cpu.intInstQueueWakeupAccesses       269376337                       # Number of integer instruction queue wakeup accesses (Count)
system.cpu.fpInstQueueReads                     18553                       # Number of floating instruction queue reads (Count)
system.cpu.fpInstQueueWrites                     9398                       # Number of floating instruction queue writes (Count)
system.cpu.fpInstQueueWakeupAccesses             9222                       # Number of floating instruction queue wakeup accesses (Count)
system.cpu.vecInstQueueReads                        0                       # Number of vector instruction queue reads (Count)
system.cpu.vecInstQueueWrites                       0                       # Number of vector instruction queue writes (Count)
system.cpu.vecInstQueueWakeupAccesses               0                       # Number of vector instruction queue wakeup accesses (Count)
system.cpu.intAluAccesses                   271722214                       # Number of integer alu accesses (Count)
system.cpu.fpAluAccesses                         9277                       # Number of floating point alu accesses (Count)
system.cpu.vecAluAccesses                           0                       # Number of vector alu accesses (Count)
system.cpu.numSquashedInsts                    773420                       # Number of squashed instructions skipped in execute (Count)
system.cpu.numSwp                                   0                       # Number of swp insts executed (Count)
system.cpu.timesIdled                             622                       # Number of times that the entire CPU went into an idle state and unscheduled itself (Count)
system.cpu.idleCycles                           24747                       # Total number of cycles that the CPU has spent unscheduled due to idling (Cycle)
system.cpu.MemDepUnit__0.insertedLoads       65730918                       # Number of loads inserted to the mem dependence unit. (Count)
system.cpu.MemDepUnit__0.insertedStores      37763200                       # Number of stores inserted to the mem dependence unit. (Count)
system.cpu.MemDepUnit__0.conflictingLoads     58457893                       # Number of conflicting loads. (Count)
system.cpu.MemDepUnit__0.conflictingStores     30443997                       # Number of conflicting stores. (Count)
system.cpu.MemDepUnit__1.insertedLoads              0                       # Number of loads inserted to the mem dependence unit. (Count)
system.cpu.MemDepUnit__1.insertedStores             0                       # Number of stores inserted to the mem dependence unit. (Count)
system.cpu.MemDepUnit__1.conflictingLoads            0                       # Number of conflicting loads. (Count)
system.cpu.MemDepUnit__1.conflictingStores            0                       # Number of conflicting stores. (Count)
system.cpu.MemDepUnit__2.insertedLoads              0                       # Number of loads inserted to the mem dependence unit. (Count)
system.cpu.MemDepUnit__2.insertedStores             0                       # Number of stores inserted to the mem dependence unit. (Count)
system.cpu.MemDepUnit__2.conflictingLoads            0                       # Number of conflicting loads. (Count)
system.cpu.MemDepUnit__2.conflictingStores            0                       # Number of conflicting stores. (Count)
system.cpu.MemDepUnit__3.insertedLoads              0                       # Number of loads inserted to the mem dependence unit. (Count)
system.cpu.MemDepUnit__3.insertedStores             0                       # Number of stores inserted to the mem dependence unit. (Count)
system.cpu.MemDepUnit__3.conflictingLoads            0                       # Number of conflicting loads. (Count)
system.cpu.MemDepUnit__3.conflictingStores            0                       # Number of conflicting stores. (Count)
system.cpu.branchPred.lookups                27783188                       # Number of BP lookups (Count)
system.cpu.branchPred.condPredicted          26840632                       # Number of conditional branches predicted (Count)
system.cpu.branchPred.condIncorrect            121109                       # Number of conditional branches incorrect (Count)
system.cpu.branchPred.BTBLookups             25156301                       # Number of BTB lookups (Count)
system.cpu.branchPred.BTBUpdates                 3031                       # Number of BTB updates (Count)
system.cpu.branchPred.BTBHits                25155614                       # Number of BTB hits (Count)
system.cpu.branchPred.BTBHitRatio            0.999973                       # BTB Hit Ratio (Ratio)
system.cpu.branchPred.RASUsed                  124247                       # Number of times the RAS was used to get a target. (Count)
system.cpu.branchPred.RASIncorrect                  2                       # Number of incorrect RAS predictions. (Count)
system.cpu.branchPred.indirectLookups            1385                       # Number of indirect predictor lookups. (Count)
system.cpu.branchPred.indirectHits               1104                       # Number of indirect target hits. (Count)
system.cpu.branchPred.indirectMisses              281                       # Number of indirect misses. (Count)
system.cpu.branchPred.indirectMispredicted          252                       # Number of mispredicted indirect branches. (Count)
system.cpu.branchPred.loop_predictor.correct     15674166                       # Number of times the loop predictor is the provider and the prediction is correct (Count)
system.cpu.branchPred.loop_predictor.wrong      1832605                       # Number of times the loop predictor is the provider and the prediction is wrong (Count)
system.cpu.branchPred.statistical_corrector.correct      2444174                       # Number of time the SC predictor is the provider and the prediction is correct (Count)
system.cpu.branchPred.statistical_corrector.wrong     15062597                       # Number of time the SC predictor is the provider and the prediction is wrong (Count)
system.cpu.branchPred.tage.longestMatchProviderCorrect      9966868                       # Number of times TAGE Longest Match is the provider and the prediction is correct (Count)
system.cpu.branchPred.tage.altMatchProviderCorrect         2068                       # Number of times TAGE Alt Match is the provider and the prediction is correct (Count)
system.cpu.branchPred.tage.bimodalAltMatchProviderCorrect          163                       # Number of times TAGE Alt Match is the bimodal and it is the provider and the prediction is correct (Count)
system.cpu.branchPred.tage.bimodalProviderCorrect      2953941                       # Number of times there are no hits on the TAGE tables and the bimodal prediction is correct (Count)
system.cpu.branchPred.tage.longestMatchProviderWrong        81073                       # Number of times TAGE Longest Match is the provider and the prediction is wrong (Count)
system.cpu.branchPred.tage.altMatchProviderWrong         1616                       # Number of times TAGE Alt Match is the provider and the prediction is wrong (Count)
system.cpu.branchPred.tage.bimodalAltMatchProviderWrong           70                       # Number of times TAGE Alt Match is the bimodal and it is the provider and the prediction is wrong (Count)
system.cpu.branchPred.tage.bimodalProviderWrong          405                       # Number of times there are no hits on the TAGE tables and the bimodal prediction is wrong (Count)
system.cpu.branchPred.tage.altMatchProviderWouldHaveHit         5356                       # Number of times TAGE Longest Match is the provider, the prediction is wrong and Alt Match prediction was correct (Count)
system.cpu.branchPred.tage.longestMatchProviderWouldHaveHit          254                       # Number of times TAGE Alt Match is the provider, the prediction is wrong and Longest Match prediction was correct (Count)
system.cpu.branchPred.tage.longestMatchProvider::0            0                       # TAGE provider for longest match (Count)
system.cpu.branchPred.tage.longestMatchProvider::1            0                       # TAGE provider for longest match (Count)
system.cpu.branchPred.tage.longestMatchProvider::2       396487                       # TAGE provider for longest match (Count)
system.cpu.branchPred.tage.longestMatchProvider::3            0                       # TAGE provider for longest match (Count)
system.cpu.branchPred.tage.longestMatchProvider::4        21191                       # TAGE provider for longest match (Count)
system.cpu.branchPred.tage.longestMatchProvider::5            0                       # TAGE provider for longest match (Count)
system.cpu.branchPred.tage.longestMatchProvider::6       537328                       # TAGE provider for longest match (Count)
system.cpu.branchPred.tage.longestMatchProvider::7        88678                       # TAGE provider for longest match (Count)
system.cpu.branchPred.tage.longestMatchProvider::8        17124                       # TAGE provider for longest match (Count)
system.cpu.branchPred.tage.longestMatchProvider::9       137087                       # TAGE provider for longest match (Count)
system.cpu.branchPred.tage.longestMatchProvider::10      4121209                       # TAGE provider for longest match (Count)
system.cpu.branchPred.tage.longestMatchProvider::11        17650                       # TAGE provider for longest match (Count)
system.cpu.branchPred.tage.longestMatchProvider::12        36107                       # TAGE provider for longest match (Count)
system.cpu.branchPred.tage.longestMatchProvider::13       110290                       # TAGE provider for longest match (Count)
system.cpu.branchPred.tage.longestMatchProvider::14       175819                       # TAGE provider for longest match (Count)
system.cpu.branchPred.tage.longestMatchProvider::15        39849                       # TAGE provider for longest match (Count)
system.cpu.branchPred.tage.longestMatchProvider::16       713543                       # TAGE provider for longest match (Count)
system.cpu.branchPred.tage.longestMatchProvider::17         8091                       # TAGE provider for longest match (Count)
system.cpu.branchPred.tage.longestMatchProvider::18        96671                       # TAGE provider for longest match (Count)
system.cpu.branchPred.tage.longestMatchProvider::19      1421510                       # TAGE provider for longest match (Count)
system.cpu.branchPred.tage.longestMatchProvider::20       129566                       # TAGE provider for longest match (Count)
system.cpu.branchPred.tage.longestMatchProvider::21            0                       # TAGE provider for longest match (Count)
system.cpu.branchPred.tage.longestMatchProvider::22       273374                       # TAGE provider for longest match (Count)
system.cpu.branchPred.tage.longestMatchProvider::23            0                       # TAGE provider for longest match (Count)
system.cpu.branchPred.tage.longestMatchProvider::24       355973                       # TAGE provider for longest match (Count)
system.cpu.branchPred.tage.longestMatchProvider::25            0                       # TAGE provider for longest match (Count)
system.cpu.branchPred.tage.longestMatchProvider::26       478997                       # TAGE provider for longest match (Count)
system.cpu.branchPred.tage.longestMatchProvider::27            0                       # TAGE provider for longest match (Count)
system.cpu.branchPred.tage.longestMatchProvider::28       470073                       # TAGE provider for longest match (Count)
system.cpu.branchPred.tage.longestMatchProvider::29            0                       # TAGE provider for longest match (Count)
system.cpu.branchPred.tage.longestMatchProvider::30       405008                       # TAGE provider for longest match (Count)
system.cpu.branchPred.tage.altMatchProvider::0       424327                       # TAGE provider for alt match (Count)
system.cpu.branchPred.tage.altMatchProvider::1            0                       # TAGE provider for alt match (Count)
system.cpu.branchPred.tage.altMatchProvider::2       573039                       # TAGE provider for alt match (Count)
system.cpu.branchPred.tage.altMatchProvider::3            0                       # TAGE provider for alt match (Count)
system.cpu.branchPred.tage.altMatchProvider::4        45918                       # TAGE provider for alt match (Count)
system.cpu.branchPred.tage.altMatchProvider::5            0                       # TAGE provider for alt match (Count)
system.cpu.branchPred.tage.altMatchProvider::6      3951864                       # TAGE provider for alt match (Count)
system.cpu.branchPred.tage.altMatchProvider::7       411933                       # TAGE provider for alt match (Count)
system.cpu.branchPred.tage.altMatchProvider::8        10615                       # TAGE provider for alt match (Count)
system.cpu.branchPred.tage.altMatchProvider::9          491                       # TAGE provider for alt match (Count)
system.cpu.branchPred.tage.altMatchProvider::10      1751389                       # TAGE provider for alt match (Count)
system.cpu.branchPred.tage.altMatchProvider::11        29109                       # TAGE provider for alt match (Count)
system.cpu.branchPred.tage.altMatchProvider::12        34972                       # TAGE provider for alt match (Count)
system.cpu.branchPred.tage.altMatchProvider::13       299688                       # TAGE provider for alt match (Count)
system.cpu.branchPred.tage.altMatchProvider::14        53708                       # TAGE provider for alt match (Count)
system.cpu.branchPred.tage.altMatchProvider::15        29133                       # TAGE provider for alt match (Count)
system.cpu.branchPred.tage.altMatchProvider::16       370109                       # TAGE provider for alt match (Count)
system.cpu.branchPred.tage.altMatchProvider::17         8103                       # TAGE provider for alt match (Count)
system.cpu.branchPred.tage.altMatchProvider::18       196801                       # TAGE provider for alt match (Count)
system.cpu.branchPred.tage.altMatchProvider::19        87373                       # TAGE provider for alt match (Count)
system.cpu.branchPred.tage.altMatchProvider::20       171027                       # TAGE provider for alt match (Count)
system.cpu.branchPred.tage.altMatchProvider::21            0                       # TAGE provider for alt match (Count)
system.cpu.branchPred.tage.altMatchProvider::22       334321                       # TAGE provider for alt match (Count)
system.cpu.branchPred.tage.altMatchProvider::23            0                       # TAGE provider for alt match (Count)
system.cpu.branchPred.tage.altMatchProvider::24       549160                       # TAGE provider for alt match (Count)
system.cpu.branchPred.tage.altMatchProvider::25            0                       # TAGE provider for alt match (Count)
system.cpu.branchPred.tage.altMatchProvider::26       543253                       # TAGE provider for alt match (Count)
system.cpu.branchPred.tage.altMatchProvider::27            0                       # TAGE provider for alt match (Count)
system.cpu.branchPred.tage.altMatchProvider::28       175292                       # TAGE provider for alt match (Count)
system.cpu.branchPred.tage.altMatchProvider::29            0                       # TAGE provider for alt match (Count)
system.cpu.branchPred.tage.altMatchProvider::30            0                       # TAGE provider for alt match (Count)
system.cpu.commit.commitSquashedInsts        97924094                       # The number of squashed insts skipped by commit (Count)
system.cpu.commit.commitNonSpecStalls         2854446                       # The number of times commit has been forced to stall to communicate backwards (Count)
system.cpu.commit.branchMispredicts            120644                       # The number of times a branch was mispredicted (Count)
system.cpu.commit.numCommittedDist::samples    297981907                       # Number of insts commited each cycle (Count)
system.cpu.commit.numCommittedDist::mean     0.774542                       # Number of insts commited each cycle (Count)
system.cpu.commit.numCommittedDist::stdev     1.585112                       # Number of insts commited each cycle (Count)
system.cpu.commit.numCommittedDist::underflows            0      0.00%      0.00% # Number of insts commited each cycle (Count)
system.cpu.commit.numCommittedDist::0       214473278     71.98%     71.98% # Number of insts commited each cycle (Count)
system.cpu.commit.numCommittedDist::1        25781989      8.65%     80.63% # Number of insts commited each cycle (Count)
system.cpu.commit.numCommittedDist::2        20143271      6.76%     87.39% # Number of insts commited each cycle (Count)
system.cpu.commit.numCommittedDist::3        18653976      6.26%     93.65% # Number of insts commited each cycle (Count)
system.cpu.commit.numCommittedDist::4          241036      0.08%     93.73% # Number of insts commited each cycle (Count)
system.cpu.commit.numCommittedDist::5        12382778      4.16%     97.88% # Number of insts commited each cycle (Count)
system.cpu.commit.numCommittedDist::6         2274714      0.76%     98.65% # Number of insts commited each cycle (Count)
system.cpu.commit.numCommittedDist::7            4343      0.00%     98.65% # Number of insts commited each cycle (Count)
system.cpu.commit.numCommittedDist::8         4026522      1.35%    100.00% # Number of insts commited each cycle (Count)
system.cpu.commit.numCommittedDist::overflows            0      0.00%    100.00% # Number of insts commited each cycle (Count)
system.cpu.commit.numCommittedDist::min_value            0                       # Number of insts commited each cycle (Count)
system.cpu.commit.numCommittedDist::max_value            8                       # Number of insts commited each cycle (Count)
system.cpu.commit.numCommittedDist::total    297981907                       # Number of insts commited each cycle (Count)
system.cpu.commit.amos                              0                       # Number of atomic instructions committed (Count)
system.cpu.commit.membars                     2854446                       # Number of memory barriers committed (Count)
system.cpu.commit.functionCalls                109440                       # Number of function calls committed. (Count)
system.cpu.commit.committedInstType_0::No_OpClass          629      0.00%      0.00% # Class of committed instruction (Count)
system.cpu.commit.committedInstType_0::IntAlu    160252126     69.43%     69.43% # Class of committed instruction (Count)
system.cpu.commit.committedInstType_0::IntMult      1023069      0.44%     69.88% # Class of committed instruction (Count)
system.cpu.commit.committedInstType_0::IntDiv        50673      0.02%     69.90% # Class of committed instruction (Count)
system.cpu.commit.committedInstType_0::FloatAdd          328      0.00%     69.90% # Class of committed instruction (Count)
system.cpu.commit.committedInstType_0::FloatCmp            0      0.00%     69.90% # Class of committed instruction (Count)
system.cpu.commit.committedInstType_0::FloatCvt            0      0.00%     69.90% # Class of committed instruction (Count)
system.cpu.commit.committedInstType_0::FloatMult            0      0.00%     69.90% # Class of committed instruction (Count)
system.cpu.commit.committedInstType_0::FloatMultAcc            0      0.00%     69.90% # Class of committed instruction (Count)
system.cpu.commit.committedInstType_0::FloatDiv            0      0.00%     69.90% # Class of committed instruction (Count)
system.cpu.commit.committedInstType_0::FloatMisc            0      0.00%     69.90% # Class of committed instruction (Count)
system.cpu.commit.committedInstType_0::FloatSqrt            0      0.00%     69.90% # Class of committed instruction (Count)
system.cpu.commit.committedInstType_0::SimdAdd            0      0.00%     69.90% # Class of committed instruction (Count)
system.cpu.commit.committedInstType_0::SimdAddAcc            0      0.00%     69.90% # Class of committed instruction (Count)
system.cpu.commit.committedInstType_0::SimdAlu         1602      0.00%     69.90% # Class of committed instruction (Count)
system.cpu.commit.committedInstType_0::SimdCmp            0      0.00%     69.90% # Class of committed instruction (Count)
system.cpu.commit.committedInstType_0::SimdCvt         1814      0.00%     69.90% # Class of committed instruction (Count)
system.cpu.commit.committedInstType_0::SimdMisc         3230      0.00%     69.90% # Class of committed instruction (Count)
system.cpu.commit.committedInstType_0::SimdMult            0      0.00%     69.90% # Class of committed instruction (Count)
system.cpu.commit.committedInstType_0::SimdMultAcc            0      0.00%     69.90% # Class of committed instruction (Count)
system.cpu.commit.committedInstType_0::SimdMatMultAcc            0      0.00%     69.90% # Class of committed instruction (Count)
system.cpu.commit.committedInstType_0::SimdShift            0      0.00%     69.90% # Class of committed instruction (Count)
system.cpu.commit.committedInstType_0::SimdShiftAcc            0      0.00%     69.90% # Class of committed instruction (Count)
system.cpu.commit.committedInstType_0::SimdDiv            0      0.00%     69.90% # Class of committed instruction (Count)
system.cpu.commit.committedInstType_0::SimdSqrt            0      0.00%     69.90% # Class of committed instruction (Count)
system.cpu.commit.committedInstType_0::SimdFloatAdd            0      0.00%     69.90% # Class of committed instruction (Count)
system.cpu.commit.committedInstType_0::SimdFloatAlu            0      0.00%     69.90% # Class of committed instruction (Count)
system.cpu.commit.committedInstType_0::SimdFloatCmp            0      0.00%     69.90% # Class of committed instruction (Count)
system.cpu.commit.committedInstType_0::SimdFloatCvt            0      0.00%     69.90% # Class of committed instruction (Count)
system.cpu.commit.committedInstType_0::SimdFloatDiv            0      0.00%     69.90% # Class of committed instruction (Count)
system.cpu.commit.committedInstType_0::SimdFloatMisc            0      0.00%     69.90% # Class of committed instruction (Count)
system.cpu.commit.committedInstType_0::SimdFloatMult            0      0.00%     69.90% # Class of committed instruction (Count)
system.cpu.commit.committedInstType_0::SimdFloatMultAcc            0      0.00%     69.90% # Class of committed instruction (Count)
system.cpu.commit.committedInstType_0::SimdFloatMatMultAcc            0      0.00%     69.90% # Class of committed instruction (Count)
system.cpu.commit.committedInstType_0::SimdFloatSqrt            0      0.00%     69.90% # Class of committed instruction (Count)
system.cpu.commit.committedInstType_0::SimdReduceAdd            0      0.00%     69.90% # Class of committed instruction (Count)
system.cpu.commit.committedInstType_0::SimdReduceAlu            0      0.00%     69.90% # Class of committed instruction (Count)
system.cpu.commit.committedInstType_0::SimdReduceCmp            0      0.00%     69.90% # Class of committed instruction (Count)
system.cpu.commit.committedInstType_0::SimdFloatReduceAdd            0      0.00%     69.90% # Class of committed instruction (Count)
system.cpu.commit.committedInstType_0::SimdFloatReduceCmp            0      0.00%     69.90% # Class of committed instruction (Count)
system.cpu.commit.committedInstType_0::SimdAes            0      0.00%     69.90% # Class of committed instruction (Count)
system.cpu.commit.committedInstType_0::SimdAesMix            0      0.00%     69.90% # Class of committed instruction (Count)
system.cpu.commit.committedInstType_0::SimdSha1Hash            0      0.00%     69.90% # Class of committed instruction (Count)
system.cpu.commit.committedInstType_0::SimdSha1Hash2            0      0.00%     69.90% # Class of committed instruction (Count)
system.cpu.commit.committedInstType_0::SimdSha256Hash            0      0.00%     69.90% # Class of committed instruction (Count)
system.cpu.commit.committedInstType_0::SimdSha256Hash2            0      0.00%     69.90% # Class of committed instruction (Count)
system.cpu.commit.committedInstType_0::SimdShaSigma2            0      0.00%     69.90% # Class of committed instruction (Count)
system.cpu.commit.committedInstType_0::SimdShaSigma3            0      0.00%     69.90% # Class of committed instruction (Count)
system.cpu.commit.committedInstType_0::SimdPredAlu            0      0.00%     69.90% # Class of committed instruction (Count)
system.cpu.commit.committedInstType_0::Matrix            0      0.00%     69.90% # Class of committed instruction (Count)
system.cpu.commit.committedInstType_0::MatrixMov            0      0.00%     69.90% # Class of committed instruction (Count)
system.cpu.commit.committedInstType_0::MatrixOP            0      0.00%     69.90% # Class of committed instruction (Count)
system.cpu.commit.committedInstType_0::MemRead     44798350     19.41%     89.31% # Class of committed instruction (Count)
system.cpu.commit.committedInstType_0::MemWrite     24666451     10.69%    100.00% # Class of committed instruction (Count)
system.cpu.commit.committedInstType_0::FloatMemRead          922      0.00%    100.00% # Class of committed instruction (Count)
system.cpu.commit.committedInstType_0::FloatMemWrite          160      0.00%    100.00% # Class of committed instruction (Count)
system.cpu.commit.committedInstType_0::IprAccess            0      0.00%    100.00% # Class of committed instruction (Count)
system.cpu.commit.committedInstType_0::InstPrefetch            0      0.00%    100.00% # Class of committed instruction (Count)
system.cpu.commit.committedInstType_0::VectorUnitStrideLoad            0      0.00%    100.00% # Class of committed instruction (Count)
system.cpu.commit.committedInstType_0::VectorUnitStrideStore            0      0.00%    100.00% # Class of committed instruction (Count)
system.cpu.commit.committedInstType_0::VectorUnitStrideMaskLoad            0      0.00%    100.00% # Class of committed instruction (Count)
system.cpu.commit.committedInstType_0::VectorUnitStrideMaskStore            0      0.00%    100.00% # Class of committed instruction (Count)
system.cpu.commit.committedInstType_0::VectorStridedLoad            0      0.00%    100.00% # Class of committed instruction (Count)
system.cpu.commit.committedInstType_0::VectorStridedStore            0      0.00%    100.00% # Class of committed instruction (Count)
system.cpu.commit.committedInstType_0::VectorIndexedLoad            0      0.00%    100.00% # Class of committed instruction (Count)
system.cpu.commit.committedInstType_0::VectorIndexedStore            0      0.00%    100.00% # Class of committed instruction (Count)
system.cpu.commit.committedInstType_0::VectorUnitStrideFaultOnlyFirstLoad            0      0.00%    100.00% # Class of committed instruction (Count)
system.cpu.commit.committedInstType_0::VectorWholeRegisterLoad            0      0.00%    100.00% # Class of committed instruction (Count)
system.cpu.commit.committedInstType_0::VectorWholeRegisterStore            0      0.00%    100.00% # Class of committed instruction (Count)
system.cpu.commit.committedInstType_0::VectorIntegerArith            0      0.00%    100.00% # Class of committed instruction (Count)
system.cpu.commit.committedInstType_0::VectorFloatArith            0      0.00%    100.00% # Class of committed instruction (Count)
system.cpu.commit.committedInstType_0::VectorFloatConvert            0      0.00%    100.00% # Class of committed instruction (Count)
system.cpu.commit.committedInstType_0::VectorIntegerReduce            0      0.00%    100.00% # Class of committed instruction (Count)
system.cpu.commit.committedInstType_0::VectorFloatReduce            0      0.00%    100.00% # Class of committed instruction (Count)
system.cpu.commit.committedInstType_0::VectorMisc            0      0.00%    100.00% # Class of committed instruction (Count)
system.cpu.commit.committedInstType_0::VectorIntegerExtension            0      0.00%    100.00% # Class of committed instruction (Count)
system.cpu.commit.committedInstType_0::VectorConfig            0      0.00%    100.00% # Class of committed instruction (Count)
system.cpu.commit.committedInstType_0::total    230799354                       # Class of committed instruction (Count)
system.cpu.commit.commitEligibleSamples       4026522                       # number cycles where commit BW limit reached (Cycle)
system.cpu.commitStats0.numInsts            134920327                       # Number of instructions committed (thread level) (Count)
system.cpu.commitStats0.numOps              230799354                       # Number of ops (including micro ops) committed (thread level) (Count)
system.cpu.commitStats0.numInstsNotNOP      134920327                       # Number of instructions committed excluding NOPs or prefetches (Count)
system.cpu.commitStats0.numOpsNotNOP        230799354                       # Number of Ops (including micro ops) Simulated (Count)
system.cpu.commitStats0.cpi                  2.304061                       # CPI: cycles per instruction (thread level) ((Cycle/Count))
system.cpu.commitStats0.ipc                  0.434016                       # IPC: instructions per cycle (thread level) ((Count/Cycle))
system.cpu.commitStats0.numMemRefs           69465883                       # Number of memory references committed (Count)
system.cpu.commitStats0.numFpInsts               9194                       # Number of float instructions (Count)
system.cpu.commitStats0.numIntInsts         227929495                       # Number of integer instructions (Count)
system.cpu.commitStats0.numLoadInsts         44799272                       # Number of load instructions (Count)
system.cpu.commitStats0.numStoreInsts        24666611                       # Number of store instructions (Count)
system.cpu.commitStats0.numVecInsts                 0                       # Number of vector instructions (Count)
system.cpu.commitStats0.committedInstType::No_OpClass          629      0.00%      0.00% # Class of committed instruction. (Count)
system.cpu.commitStats0.committedInstType::IntAlu    160252126     69.43%     69.43% # Class of committed instruction. (Count)
system.cpu.commitStats0.committedInstType::IntMult      1023069      0.44%     69.88% # Class of committed instruction. (Count)
system.cpu.commitStats0.committedInstType::IntDiv        50673      0.02%     69.90% # Class of committed instruction. (Count)
system.cpu.commitStats0.committedInstType::FloatAdd          328      0.00%     69.90% # Class of committed instruction. (Count)
system.cpu.commitStats0.committedInstType::FloatCmp            0      0.00%     69.90% # Class of committed instruction. (Count)
system.cpu.commitStats0.committedInstType::FloatCvt            0      0.00%     69.90% # Class of committed instruction. (Count)
system.cpu.commitStats0.committedInstType::FloatMult            0      0.00%     69.90% # Class of committed instruction. (Count)
system.cpu.commitStats0.committedInstType::FloatMultAcc            0      0.00%     69.90% # Class of committed instruction. (Count)
system.cpu.commitStats0.committedInstType::FloatDiv            0      0.00%     69.90% # Class of committed instruction. (Count)
system.cpu.commitStats0.committedInstType::FloatMisc            0      0.00%     69.90% # Class of committed instruction. (Count)
system.cpu.commitStats0.committedInstType::FloatSqrt            0      0.00%     69.90% # Class of committed instruction. (Count)
system.cpu.commitStats0.committedInstType::SimdAdd            0      0.00%     69.90% # Class of committed instruction. (Count)
system.cpu.commitStats0.committedInstType::SimdAddAcc            0      0.00%     69.90% # Class of committed instruction. (Count)
system.cpu.commitStats0.committedInstType::SimdAlu         1602      0.00%     69.90% # Class of committed instruction. (Count)
system.cpu.commitStats0.committedInstType::SimdCmp            0      0.00%     69.90% # Class of committed instruction. (Count)
system.cpu.commitStats0.committedInstType::SimdCvt         1814      0.00%     69.90% # Class of committed instruction. (Count)
system.cpu.commitStats0.committedInstType::SimdMisc         3230      0.00%     69.90% # Class of committed instruction. (Count)
system.cpu.commitStats0.committedInstType::SimdMult            0      0.00%     69.90% # Class of committed instruction. (Count)
system.cpu.commitStats0.committedInstType::SimdMultAcc            0      0.00%     69.90% # Class of committed instruction. (Count)
system.cpu.commitStats0.committedInstType::SimdMatMultAcc            0      0.00%     69.90% # Class of committed instruction. (Count)
system.cpu.commitStats0.committedInstType::SimdShift            0      0.00%     69.90% # Class of committed instruction. (Count)
system.cpu.commitStats0.committedInstType::SimdShiftAcc            0      0.00%     69.90% # Class of committed instruction. (Count)
system.cpu.commitStats0.committedInstType::SimdDiv            0      0.00%     69.90% # Class of committed instruction. (Count)
system.cpu.commitStats0.committedInstType::SimdSqrt            0      0.00%     69.90% # Class of committed instruction. (Count)
system.cpu.commitStats0.committedInstType::SimdFloatAdd            0      0.00%     69.90% # Class of committed instruction. (Count)
system.cpu.commitStats0.committedInstType::SimdFloatAlu            0      0.00%     69.90% # Class of committed instruction. (Count)
system.cpu.commitStats0.committedInstType::SimdFloatCmp            0      0.00%     69.90% # Class of committed instruction. (Count)
system.cpu.commitStats0.committedInstType::SimdFloatCvt            0      0.00%     69.90% # Class of committed instruction. (Count)
system.cpu.commitStats0.committedInstType::SimdFloatDiv            0      0.00%     69.90% # Class of committed instruction. (Count)
system.cpu.commitStats0.committedInstType::SimdFloatMisc            0      0.00%     69.90% # Class of committed instruction. (Count)
system.cpu.commitStats0.committedInstType::SimdFloatMult            0      0.00%     69.90% # Class of committed instruction. (Count)
system.cpu.commitStats0.committedInstType::SimdFloatMultAcc            0      0.00%     69.90% # Class of committed instruction. (Count)
system.cpu.commitStats0.committedInstType::SimdFloatMatMultAcc            0      0.00%     69.90% # Class of committed instruction. (Count)
system.cpu.commitStats0.committedInstType::SimdFloatSqrt            0      0.00%     69.90% # Class of committed instruction. (Count)
system.cpu.commitStats0.committedInstType::SimdReduceAdd            0      0.00%     69.90% # Class of committed instruction. (Count)
system.cpu.commitStats0.committedInstType::SimdReduceAlu            0      0.00%     69.90% # Class of committed instruction. (Count)
system.cpu.commitStats0.committedInstType::SimdReduceCmp            0      0.00%     69.90% # Class of committed instruction. (Count)
system.cpu.commitStats0.committedInstType::SimdFloatReduceAdd            0      0.00%     69.90% # Class of committed instruction. (Count)
system.cpu.commitStats0.committedInstType::SimdFloatReduceCmp            0      0.00%     69.90% # Class of committed instruction. (Count)
system.cpu.commitStats0.committedInstType::SimdAes            0      0.00%     69.90% # Class of committed instruction. (Count)
system.cpu.commitStats0.committedInstType::SimdAesMix            0      0.00%     69.90% # Class of committed instruction. (Count)
system.cpu.commitStats0.committedInstType::SimdSha1Hash            0      0.00%     69.90% # Class of committed instruction. (Count)
system.cpu.commitStats0.committedInstType::SimdSha1Hash2            0      0.00%     69.90% # Class of committed instruction. (Count)
system.cpu.commitStats0.committedInstType::SimdSha256Hash            0      0.00%     69.90% # Class of committed instruction. (Count)
system.cpu.commitStats0.committedInstType::SimdSha256Hash2            0      0.00%     69.90% # Class of committed instruction. (Count)
system.cpu.commitStats0.committedInstType::SimdShaSigma2            0      0.00%     69.90% # Class of committed instruction. (Count)
system.cpu.commitStats0.committedInstType::SimdShaSigma3            0      0.00%     69.90% # Class of committed instruction. (Count)
system.cpu.commitStats0.committedInstType::SimdPredAlu            0      0.00%     69.90% # Class of committed instruction. (Count)
system.cpu.commitStats0.committedInstType::Matrix            0      0.00%     69.90% # Class of committed instruction. (Count)
system.cpu.commitStats0.committedInstType::MatrixMov            0      0.00%     69.90% # Class of committed instruction. (Count)
system.cpu.commitStats0.committedInstType::MatrixOP            0      0.00%     69.90% # Class of committed instruction. (Count)
system.cpu.commitStats0.committedInstType::MemRead     44798350     19.41%     89.31% # Class of committed instruction. (Count)
system.cpu.commitStats0.committedInstType::MemWrite     24666451     10.69%    100.00% # Class of committed instruction. (Count)
system.cpu.commitStats0.committedInstType::FloatMemRead          922      0.00%    100.00% # Class of committed instruction. (Count)
system.cpu.commitStats0.committedInstType::FloatMemWrite          160      0.00%    100.00% # Class of committed instruction. (Count)
system.cpu.commitStats0.committedInstType::IprAccess            0      0.00%    100.00% # Class of committed instruction. (Count)
system.cpu.commitStats0.committedInstType::InstPrefetch            0      0.00%    100.00% # Class of committed instruction. (Count)
system.cpu.commitStats0.committedInstType::VectorUnitStrideLoad            0      0.00%    100.00% # Class of committed instruction. (Count)
system.cpu.commitStats0.committedInstType::VectorUnitStrideStore            0      0.00%    100.00% # Class of committed instruction. (Count)
system.cpu.commitStats0.committedInstType::VectorUnitStrideMaskLoad            0      0.00%    100.00% # Class of committed instruction. (Count)
system.cpu.commitStats0.committedInstType::VectorUnitStrideMaskStore            0      0.00%    100.00% # Class of committed instruction. (Count)
system.cpu.commitStats0.committedInstType::VectorStridedLoad            0      0.00%    100.00% # Class of committed instruction. (Count)
system.cpu.commitStats0.committedInstType::VectorStridedStore            0      0.00%    100.00% # Class of committed instruction. (Count)
system.cpu.commitStats0.committedInstType::VectorIndexedLoad            0      0.00%    100.00% # Class of committed instruction. (Count)
system.cpu.commitStats0.committedInstType::VectorIndexedStore            0      0.00%    100.00% # Class of committed instruction. (Count)
system.cpu.commitStats0.committedInstType::VectorUnitStrideFaultOnlyFirstLoad            0      0.00%    100.00% # Class of committed instruction. (Count)
system.cpu.commitStats0.committedInstType::VectorWholeRegisterLoad            0      0.00%    100.00% # Class of committed instruction. (Count)
system.cpu.commitStats0.committedInstType::VectorWholeRegisterStore            0      0.00%    100.00% # Class of committed instruction. (Count)
system.cpu.commitStats0.committedInstType::VectorIntegerArith            0      0.00%    100.00% # Class of committed instruction. (Count)
system.cpu.commitStats0.committedInstType::VectorFloatArith            0      0.00%    100.00% # Class of committed instruction. (Count)
system.cpu.commitStats0.committedInstType::VectorFloatConvert            0      0.00%    100.00% # Class of committed instruction. (Count)
system.cpu.commitStats0.committedInstType::VectorIntegerReduce            0      0.00%    100.00% # Class of committed instruction. (Count)
system.cpu.commitStats0.committedInstType::VectorFloatReduce            0      0.00%    100.00% # Class of committed instruction. (Count)
system.cpu.commitStats0.committedInstType::VectorMisc            0      0.00%    100.00% # Class of committed instruction. (Count)
system.cpu.commitStats0.committedInstType::VectorIntegerExtension            0      0.00%    100.00% # Class of committed instruction. (Count)
system.cpu.commitStats0.committedInstType::VectorConfig            0      0.00%    100.00% # Class of committed instruction. (Count)
system.cpu.commitStats0.committedInstType::total    230799354                       # Class of committed instruction. (Count)
system.cpu.commitStats0.committedControl::IsControl     18384839                       # Class of control type instructions committed (Count)
system.cpu.commitStats0.committedControl::IsDirectControl     18274380                       # Class of control type instructions committed (Count)
system.cpu.commitStats0.committedControl::IsIndirectControl       110459                       # Class of control type instructions committed (Count)
system.cpu.commitStats0.committedControl::IsCondControl     17506771                       # Class of control type instructions committed (Count)
system.cpu.commitStats0.committedControl::IsUncondControl       878068                       # Class of control type instructions committed (Count)
system.cpu.commitStats0.committedControl::IsCall       109440                       # Class of control type instructions committed (Count)
system.cpu.commitStats0.committedControl::IsReturn       109435                       # Class of control type instructions committed (Count)
system.cpu.dcache.demandHits::cpu.data       37873879                       # number of demand (read+write) hits (Count)
system.cpu.dcache.demandHits::total          37873879                       # number of demand (read+write) hits (Count)
system.cpu.dcache.overallHits::cpu.data      37873879                       # number of overall hits (Count)
system.cpu.dcache.overallHits::total         37873879                       # number of overall hits (Count)
system.cpu.dcache.demandMisses::cpu.data      1091205                       # number of demand (read+write) misses (Count)
system.cpu.dcache.demandMisses::total         1091205                       # number of demand (read+write) misses (Count)
system.cpu.dcache.overallMisses::cpu.data      1091205                       # number of overall misses (Count)
system.cpu.dcache.overallMisses::total        1091205                       # number of overall misses (Count)
system.cpu.dcache.demandMissLatency::cpu.data 105085603999                       # number of demand (read+write) miss ticks (Tick)
system.cpu.dcache.demandMissLatency::total 105085603999                       # number of demand (read+write) miss ticks (Tick)
system.cpu.dcache.overallMissLatency::cpu.data 105085603999                       # number of overall miss ticks (Tick)
system.cpu.dcache.overallMissLatency::total 105085603999                       # number of overall miss ticks (Tick)
system.cpu.dcache.demandAccesses::cpu.data     38965084                       # number of demand (read+write) accesses (Count)
system.cpu.dcache.demandAccesses::total      38965084                       # number of demand (read+write) accesses (Count)
system.cpu.dcache.overallAccesses::cpu.data     38965084                       # number of overall (read+write) accesses (Count)
system.cpu.dcache.overallAccesses::total     38965084                       # number of overall (read+write) accesses (Count)
system.cpu.dcache.demandMissRate::cpu.data     0.028005                       # miss rate for demand accesses (Ratio)
system.cpu.dcache.demandMissRate::total      0.028005                       # miss rate for demand accesses (Ratio)
system.cpu.dcache.overallMissRate::cpu.data     0.028005                       # miss rate for overall accesses (Ratio)
system.cpu.dcache.overallMissRate::total     0.028005                       # miss rate for overall accesses (Ratio)
system.cpu.dcache.demandAvgMissLatency::cpu.data 96302.348320                       # average overall miss latency in ticks ((Tick/Count))
system.cpu.dcache.demandAvgMissLatency::total 96302.348320                       # average overall miss latency in ticks ((Tick/Count))
system.cpu.dcache.overallAvgMissLatency::cpu.data 96302.348320                       # average overall miss latency ((Tick/Count))
system.cpu.dcache.overallAvgMissLatency::total 96302.348320                       # average overall miss latency ((Tick/Count))
system.cpu.dcache.blockedCycles::no_mshrs          354                       # number of cycles access was blocked (Cycle)
system.cpu.dcache.blockedCycles::no_targets            1                       # number of cycles access was blocked (Cycle)
system.cpu.dcache.blockedCauses::no_mshrs            9                       # number of times access was blocked (Count)
system.cpu.dcache.blockedCauses::no_targets            1                       # number of times access was blocked (Count)
system.cpu.dcache.avgBlocked::no_mshrs      39.333333                       # average number of cycles each access was blocked ((Cycle/Count))
system.cpu.dcache.avgBlocked::no_targets            1                       # average number of cycles each access was blocked ((Cycle/Count))
system.cpu.dcache.writebacks::writebacks        12179                       # number of writebacks (Count)
system.cpu.dcache.writebacks::total             12179                       # number of writebacks (Count)
system.cpu.dcache.demandMshrHits::cpu.data        49231                       # number of demand (read+write) MSHR hits (Count)
system.cpu.dcache.demandMshrHits::total         49231                       # number of demand (read+write) MSHR hits (Count)
system.cpu.dcache.overallMshrHits::cpu.data        49231                       # number of overall MSHR hits (Count)
system.cpu.dcache.overallMshrHits::total        49231                       # number of overall MSHR hits (Count)
system.cpu.dcache.demandMshrMisses::cpu.data      1041974                       # number of demand (read+write) MSHR misses (Count)
system.cpu.dcache.demandMshrMisses::total      1041974                       # number of demand (read+write) MSHR misses (Count)
system.cpu.dcache.overallMshrMisses::cpu.data      1041974                       # number of overall MSHR misses (Count)
system.cpu.dcache.overallMshrMisses::total      1041974                       # number of overall MSHR misses (Count)
system.cpu.dcache.demandMshrMissLatency::cpu.data 102275089000                       # number of demand (read+write) MSHR miss ticks (Tick)
system.cpu.dcache.demandMshrMissLatency::total 102275089000                       # number of demand (read+write) MSHR miss ticks (Tick)
system.cpu.dcache.overallMshrMissLatency::cpu.data 102275089000                       # number of overall MSHR miss ticks (Tick)
system.cpu.dcache.overallMshrMissLatency::total 102275089000                       # number of overall MSHR miss ticks (Tick)
system.cpu.dcache.demandMshrMissRate::cpu.data     0.026741                       # mshr miss ratio for demand accesses (Ratio)
system.cpu.dcache.demandMshrMissRate::total     0.026741                       # mshr miss ratio for demand accesses (Ratio)
system.cpu.dcache.overallMshrMissRate::cpu.data     0.026741                       # mshr miss ratio for overall accesses (Ratio)
system.cpu.dcache.overallMshrMissRate::total     0.026741                       # mshr miss ratio for overall accesses (Ratio)
system.cpu.dcache.demandAvgMshrMissLatency::cpu.data 98155.125752                       # average overall mshr miss latency ((Tick/Count))
system.cpu.dcache.demandAvgMshrMissLatency::total 98155.125752                       # average overall mshr miss latency ((Tick/Count))
system.cpu.dcache.overallAvgMshrMissLatency::cpu.data 98155.125752                       # average overall mshr miss latency ((Tick/Count))
system.cpu.dcache.overallAvgMshrMissLatency::total 98155.125752                       # average overall mshr miss latency ((Tick/Count))
system.cpu.dcache.replacements                 491699                       # number of replacements (Count)
system.cpu.dcache.CleanInvalidReq.missLatency::cpu.data  29660129000                       # number of CleanInvalidReq miss ticks (Tick)
system.cpu.dcache.CleanInvalidReq.missLatency::total  29660129000                       # number of CleanInvalidReq miss ticks (Tick)
system.cpu.dcache.CleanInvalidReq.avgMissLatency::cpu.data          inf                       # average CleanInvalidReq miss latency ((Tick/Count))
system.cpu.dcache.CleanInvalidReq.avgMissLatency::total          inf                       # average CleanInvalidReq miss latency ((Tick/Count))
system.cpu.dcache.CleanInvalidReq.mshrMisses::cpu.data      1023022                       # number of CleanInvalidReq MSHR misses (Count)
system.cpu.dcache.CleanInvalidReq.mshrMisses::total      1023022                       # number of CleanInvalidReq MSHR misses (Count)
system.cpu.dcache.CleanInvalidReq.mshrMissLatency::cpu.data  53197719000                       # number of CleanInvalidReq MSHR miss ticks (Tick)
system.cpu.dcache.CleanInvalidReq.mshrMissLatency::total  53197719000                       # number of CleanInvalidReq MSHR miss ticks (Tick)
system.cpu.dcache.CleanInvalidReq.mshrMissRate::cpu.data          inf                       # mshr miss rate for CleanInvalidReq accesses (Ratio)
system.cpu.dcache.CleanInvalidReq.mshrMissRate::total          inf                       # mshr miss rate for CleanInvalidReq accesses (Ratio)
system.cpu.dcache.CleanInvalidReq.avgMshrMissLatency::cpu.data 52000.562060                       # average CleanInvalidReq mshr miss latency ((Tick/Count))
system.cpu.dcache.CleanInvalidReq.avgMshrMissLatency::total 52000.562060                       # average CleanInvalidReq mshr miss latency ((Tick/Count))
system.cpu.dcache.ReadReq.hits::cpu.data     14232517                       # number of ReadReq hits (Count)
system.cpu.dcache.ReadReq.hits::total        14232517                       # number of ReadReq hits (Count)
system.cpu.dcache.ReadReq.misses::cpu.data      1088938                       # number of ReadReq misses (Count)
system.cpu.dcache.ReadReq.misses::total       1088938                       # number of ReadReq misses (Count)
system.cpu.dcache.ReadReq.missLatency::cpu.data 104864931000                       # number of ReadReq miss ticks (Tick)
system.cpu.dcache.ReadReq.missLatency::total 104864931000                       # number of ReadReq miss ticks (Tick)
system.cpu.dcache.ReadReq.accesses::cpu.data     15321455                       # number of ReadReq accesses(hits+misses) (Count)
system.cpu.dcache.ReadReq.accesses::total     15321455                       # number of ReadReq accesses(hits+misses) (Count)
system.cpu.dcache.ReadReq.missRate::cpu.data     0.071073                       # miss rate for ReadReq accesses (Ratio)
system.cpu.dcache.ReadReq.missRate::total     0.071073                       # miss rate for ReadReq accesses (Ratio)
system.cpu.dcache.ReadReq.avgMissLatency::cpu.data 96300.185135                       # average ReadReq miss latency ((Tick/Count))
system.cpu.dcache.ReadReq.avgMissLatency::total 96300.185135                       # average ReadReq miss latency ((Tick/Count))
system.cpu.dcache.ReadReq.mshrHits::cpu.data        49229                       # number of ReadReq MSHR hits (Count)
system.cpu.dcache.ReadReq.mshrHits::total        49229                       # number of ReadReq MSHR hits (Count)
system.cpu.dcache.ReadReq.mshrMisses::cpu.data      1039709                       # number of ReadReq MSHR misses (Count)
system.cpu.dcache.ReadReq.mshrMisses::total      1039709                       # number of ReadReq MSHR misses (Count)
system.cpu.dcache.ReadReq.mshrMissLatency::cpu.data 102059120000                       # number of ReadReq MSHR miss ticks (Tick)
system.cpu.dcache.ReadReq.mshrMissLatency::total 102059120000                       # number of ReadReq MSHR miss ticks (Tick)
system.cpu.dcache.ReadReq.mshrMissRate::cpu.data     0.067860                       # mshr miss rate for ReadReq accesses (Ratio)
system.cpu.dcache.ReadReq.mshrMissRate::total     0.067860                       # mshr miss rate for ReadReq accesses (Ratio)
system.cpu.dcache.ReadReq.avgMshrMissLatency::cpu.data 98161.235500                       # average ReadReq mshr miss latency ((Tick/Count))
system.cpu.dcache.ReadReq.avgMshrMissLatency::total 98161.235500                       # average ReadReq mshr miss latency ((Tick/Count))
[...]
system.mem_ctrl.dram.numReads::cpu.data       1025311                       # Number of read requests responded to by this memory (Count)
system.mem_ctrl.dram.numReads::total          1025876                       # Number of read requests responded to by this memory (Count)
system.mem_ctrl.dram.numWrites::writebacks          259                       # Number of write requests responded to by this memory (Count)
system.mem_ctrl.dram.numWrites::total             259                       # Number of write requests responded to by this memory (Count)
system.mem_ctrl.dram.bwRead::cpu.inst          116321                       # Total read bandwidth from this memory ((Byte/Second))
system.mem_ctrl.dram.bwRead::cpu.data       211088363                       # Total read bandwidth from this memory ((Byte/Second))
system.mem_ctrl.dram.bwRead::total          211204684                       # Total read bandwidth from this memory ((Byte/Second))
system.mem_ctrl.dram.bwInstRead::cpu.inst       116321                       # Instruction read bandwidth from this memory ((Byte/Second))
system.mem_ctrl.dram.bwInstRead::total         116321                       # Instruction read bandwidth from this memory ((Byte/Second))
system.mem_ctrl.dram.bwWrite::writebacks        53322                       # Write bandwidth from this memory ((Byte/Second))
system.mem_ctrl.dram.bwWrite::total             53322                       # Write bandwidth from this memory ((Byte/Second))
system.mem_ctrl.dram.bwTotal::writebacks        53322                       # Total bandwidth to/from this memory ((Byte/Second))
system.mem_ctrl.dram.bwTotal::cpu.inst         116321                       # Total bandwidth to/from this memory ((Byte/Second))
system.mem_ctrl.dram.bwTotal::cpu.data      211088363                       # Total bandwidth to/from this memory ((Byte/Second))
system.mem_ctrl.dram.bwTotal::total         211258006                       # Total bandwidth to/from this memory ((Byte/Second))
system.mem_ctrl.dram.readBursts                947182                       # Number of DRAM read bursts (Count)
system.mem_ctrl.dram.writeBursts                  234                       # Number of DRAM write bursts (Count)
system.mem_ctrl.dram.perBankRdBursts::0         57447                       # Per bank write bursts (Count)
system.mem_ctrl.dram.perBankRdBursts::1         57399                       # Per bank write bursts (Count)
system.mem_ctrl.dram.perBankRdBursts::2         57407                       # Per bank write bursts (Count)
system.mem_ctrl.dram.perBankRdBursts::3         57376                       # Per bank write bursts (Count)
system.mem_ctrl.dram.perBankRdBursts::4         57360                       # Per bank write bursts (Count)
system.mem_ctrl.dram.perBankRdBursts::5         57374                       # Per bank write bursts (Count)
system.mem_ctrl.dram.perBankRdBursts::6        118274                       # Per bank write bursts (Count)
system.mem_ctrl.dram.perBankRdBursts::7         25224                       # Per bank write bursts (Count)
system.mem_ctrl.dram.perBankRdBursts::8         57405                       # Per bank write bursts (Count)
system.mem_ctrl.dram.perBankRdBursts::9         57417                       # Per bank write bursts (Count)
system.mem_ctrl.dram.perBankRdBursts::10        57464                       # Per bank write bursts (Count)
system.mem_ctrl.dram.perBankRdBursts::11        57440                       # Per bank write bursts (Count)
system.mem_ctrl.dram.perBankRdBursts::12        57385                       # Per bank write bursts (Count)
system.mem_ctrl.dram.perBankRdBursts::13        57413                       # Per bank write bursts (Count)
system.mem_ctrl.dram.perBankRdBursts::14        57387                       # Per bank write bursts (Count)
system.mem_ctrl.dram.perBankRdBursts::15        57410                       # Per bank write bursts (Count)
system.mem_ctrl.dram.perBankWrBursts::0            16                       # Per bank write bursts (Count)
system.mem_ctrl.dram.perBankWrBursts::1            16                       # Per bank write bursts (Count)
system.mem_ctrl.dram.perBankWrBursts::2            16                       # Per bank write bursts (Count)
system.mem_ctrl.dram.perBankWrBursts::3            16                       # Per bank write bursts (Count)
system.mem_ctrl.dram.perBankWrBursts::4            16                       # Per bank write bursts (Count)
system.mem_ctrl.dram.perBankWrBursts::5            16                       # Per bank write bursts (Count)
system.mem_ctrl.dram.perBankWrBursts::6             3                       # Per bank write bursts (Count)
system.mem_ctrl.dram.perBankWrBursts::7             7                       # Per bank write bursts (Count)
system.mem_ctrl.dram.perBankWrBursts::8            16                       # Per bank write bursts (Count)
system.mem_ctrl.dram.perBankWrBursts::9            16                       # Per bank write bursts (Count)
system.mem_ctrl.dram.perBankWrBursts::10           16                       # Per bank write bursts (Count)
system.mem_ctrl.dram.perBankWrBursts::11           16                       # Per bank write bursts (Count)
system.mem_ctrl.dram.perBankWrBursts::12           16                       # Per bank write bursts (Count)
system.mem_ctrl.dram.perBankWrBursts::13           16                       # Per bank write bursts (Count)
system.mem_ctrl.dram.perBankWrBursts::14           16                       # Per bank write bursts (Count)
system.mem_ctrl.dram.perBankWrBursts::15           16                       # Per bank write bursts (Count)
system.mem_ctrl.dram.totQLat               8729363500                       # Total ticks spent queuing (Tick)
system.mem_ctrl.dram.totBusLat             4735910000                       # Total ticks spent in databus transfers (Tick)
system.mem_ctrl.dram.totMemAccLat         26489026000                       # Total ticks spent from burst creation until serviced by the DRAM (Tick)
system.mem_ctrl.dram.avgQLat                  9216.14                       # Average queueing delay per DRAM burst ((Tick/Count))
system.mem_ctrl.dram.avgBusLat                5000.00                       # Average bus latency per DRAM burst ((Tick/Count))
system.mem_ctrl.dram.avgMemAccLat            27966.14                       # Average memory access latency per DRAM burst ((Tick/Count))
system.mem_ctrl.dram.readRowHits               619101                       # Number of row buffer hits during reads (Count)
system.mem_ctrl.dram.writeRowHits                 216                       # Number of row buffer hits during writes (Count)
system.mem_ctrl.dram.readRowHitRate             65.36                       # Row buffer hit rate for reads (Ratio)
system.mem_ctrl.dram.writeRowHitRate            92.31                       # Row buffer hit rate for writes (Ratio)
system.mem_ctrl.dram.bytesPerActivate::samples       328092                       # Bytes accessed per row activation (Byte)
system.mem_ctrl.dram.bytesPerActivate::mean   184.805725                       # Bytes accessed per row activation (Byte)
system.mem_ctrl.dram.bytesPerActivate::gmean   160.017995                       # Bytes accessed per row activation (Byte)
system.mem_ctrl.dram.bytesPerActivate::stdev   115.966685                       # Bytes accessed per row activation (Byte)
system.mem_ctrl.dram.bytesPerActivate::0-127        46047     14.03%     14.03% # Bytes accessed per row activation (Byte)
system.mem_ctrl.dram.bytesPerActivate::128-255       183045     55.79%     69.83% # Bytes accessed per row activation (Byte)
system.mem_ctrl.dram.bytesPerActivate::256-383        89688     27.34%     97.16% # Bytes accessed per row activation (Byte)
system.mem_ctrl.dram.bytesPerActivate::384-511         1314      0.40%     97.56% # Bytes accessed per row activation (Byte)
system.mem_ctrl.dram.bytesPerActivate::512-639         1164      0.35%     97.92% # Bytes accessed per row activation (Byte)
system.mem_ctrl.dram.bytesPerActivate::640-767         1236      0.38%     98.29% # Bytes accessed per row activation (Byte)
system.mem_ctrl.dram.bytesPerActivate::768-895         5483      1.67%     99.96% # Bytes accessed per row activation (Byte)
system.mem_ctrl.dram.bytesPerActivate::896-1023            7      0.00%     99.97% # Bytes accessed per row activation (Byte)
system.mem_ctrl.dram.bytesPerActivate::1024-1151          108      0.03%    100.00% # Bytes accessed per row activation (Byte)
system.mem_ctrl.dram.bytesPerActivate::total       328092                       # Bytes accessed per row activation (Byte)
system.mem_ctrl.dram.bytesRead               60619648                       # Total bytes read (Byte)
system.mem_ctrl.dram.bytesWritten               14976                       # Total bytes written (Byte)
system.mem_ctrl.dram.avgRdBW               195.003368                       # Average DRAM read bandwidth in MiBytes/s ((Byte/Second))
system.mem_ctrl.dram.avgWrBW                 0.048175                       # Average DRAM write bandwidth in MiBytes/s ((Byte/Second))
system.mem_ctrl.dram.peakBW                  12800.00                       # Theoretical peak bandwidth in MiByte/s ((Byte/Second))
system.mem_ctrl.dram.busUtil                     1.52                       # Data bus utilization in percentage (Ratio)
system.mem_ctrl.dram.busUtilRead                 1.52                       # Data bus utilization in percentage for reads (Ratio)
system.mem_ctrl.dram.busUtilWrite                0.00                       # Data bus utilization in percentage for writes (Ratio)
system.mem_ctrl.dram.pageHitRate                65.37                       # Row buffer hit rate, read and write combined (Ratio)
system.mem_ctrl.dram.power_state.pwrStateResidencyTicks::UNDEFINED 310864621000                       # Cumulative time (in ticks) in various power states (Tick)
system.mem_ctrl.dram.rank0.actEnergy       1138194540                       # Energy for activate commands per rank (pJ) (Joule)
system.mem_ctrl.dram.rank0.preEnergy        604949565                       # Energy for precharge commands per rank (pJ) (Joule)
system.mem_ctrl.dram.rank0.readEnergy      3483327540                       # Energy for read commands per rank (pJ) (Joule)
system.mem_ctrl.dram.rank0.writeEnergy         553320                       # Energy for write commands per rank (pJ) (Joule)
system.mem_ctrl.dram.rank0.refreshEnergy 24538887360.000004                       # Energy for refresh commands per rank (pJ) (Joule)
system.mem_ctrl.dram.rank0.actBackEnergy 101211116340                       # Energy for active background per rank (pJ) (Joule)
system.mem_ctrl.dram.rank0.preBackEnergy  34141600800                       # Energy for precharge background per rank (pJ) (Joule)
system.mem_ctrl.dram.rank0.actPowerDownEnergy            0                       # Energy for active power-down per rank (pJ) (Joule)
system.mem_ctrl.dram.rank0.prePowerDownEnergy            0                       # Energy for precharge power-down per rank (pJ) (Joule)
system.mem_ctrl.dram.rank0.selfRefreshEnergy            0                       # Energy for self refresh per rank (pJ) (Joule)
system.mem_ctrl.dram.rank0.totalEnergy   165118629465                       # Total energy per rank (pJ) (Joule)
system.mem_ctrl.dram.rank0.averagePower    531.159284                       # Core power per rank (mW) (Watt)
system.mem_ctrl.dram.rank0.totalIdleTime            0                       # Total Idle time Per DRAM Rank (Tick)
system.mem_ctrl.dram.rank0.pwrStateTime::IDLE  87933625000                       # Time in different power states (Tick)
system.mem_ctrl.dram.rank0.pwrStateTime::REF  10380240000                       # Time in different power states (Tick)
system.mem_ctrl.dram.rank0.pwrStateTime::SREF            0                       # Time in different power states (Tick)
system.mem_ctrl.dram.rank0.pwrStateTime::PRE_PDN            0                       # Time in different power states (Tick)
system.mem_ctrl.dram.rank0.pwrStateTime::ACT 212550756000                       # Time in different power states (Tick)
system.mem_ctrl.dram.rank0.pwrStateTime::ACT_PDN            0                       # Time in different power states (Tick)
system.mem_ctrl.dram.rank1.actEnergy       1204432320                       # Energy for activate commands per rank (pJ) (Joule)
system.mem_ctrl.dram.rank1.preEnergy        640159575                       # Energy for precharge commands per rank (pJ) (Joule)
system.mem_ctrl.dram.rank1.readEnergy      3279551940                       # Energy for read commands per rank (pJ) (Joule)
system.mem_ctrl.dram.rank1.writeEnergy         668160                       # Energy for write commands per rank (pJ) (Joule)
system.mem_ctrl.dram.rank1.refreshEnergy 24538887360.000004                       # Energy for refresh commands per rank (pJ) (Joule)
system.mem_ctrl.dram.rank1.actBackEnergy  78339996300                       # Energy for active background per rank (pJ) (Joule)
system.mem_ctrl.dram.rank1.preBackEnergy  53401491360                       # Energy for precharge background per rank (pJ) (Joule)
system.mem_ctrl.dram.rank1.actPowerDownEnergy            0                       # Energy for active power-down per rank (pJ) (Joule)
system.mem_ctrl.dram.rank1.prePowerDownEnergy            0                       # Energy for precharge power-down per rank (pJ) (Joule)
system.mem_ctrl.dram.rank1.selfRefreshEnergy            0                       # Energy for self refresh per rank (pJ) (Joule)
system.mem_ctrl.dram.rank1.totalEnergy   161405187015                       # Total energy per rank (pJ) (Joule)
system.mem_ctrl.dram.rank1.averagePower    519.213755                       # Core power per rank (mW) (Watt)
system.mem_ctrl.dram.rank1.totalIdleTime            0                       # Total Idle time Per DRAM Rank (Tick)
system.mem_ctrl.dram.rank1.pwrStateTime::IDLE 138171244250                       # Time in different power states (Tick)
system.mem_ctrl.dram.rank1.pwrStateTime::REF  10380240000                       # Time in different power states (Tick)
system.mem_ctrl.dram.rank1.pwrStateTime::SREF            0                       # Time in different power states (Tick)
system.mem_ctrl.dram.rank1.pwrStateTime::PRE_PDN            0                       # Time in different power states (Tick)
system.mem_ctrl.dram.rank1.pwrStateTime::ACT 162313136750                       # Time in different power states (Tick)
system.mem_ctrl.dram.rank1.pwrStateTime::ACT_PDN            0                       # Time in different power states (Tick)
system.mem_ctrl.power_state.pwrStateResidencyTicks::UNDEFINED 310864621000                       # Cumulative time (in ticks) in various power states (Tick)
system.membus.transDist::ReadResp             1023696                       # Transaction distribution (Count)
system.membus.transDist::WritebackDirty             3                       # Transaction distribution (Count)
system.membus.transDist::WriteClean               256                       # Transaction distribution (Count)
system.membus.transDist::CleanEvict                 2                       # Transaction distribution (Count)
system.membus.transDist::ReadExReq               2179                       # Transaction distribution (Count)
system.membus.transDist::ReadExResp              2179                       # Transaction distribution (Count)
system.membus.transDist::ReadSharedReq        1023697                       # Transaction distribution (Count)
system.membus.transDist::CleanInvalidReq      1023022                       # Transaction distribution (Count)
system.membus.pktCount_system.l2cache.mem_side_port::system.mem_ctrl.port      3075034                       # Packet count per connected requestor and responder (Count)
system.membus.pktCount_system.l2cache.mem_side_port::total      3075034                       # Packet count per connected requestor and responder (Count)
system.membus.pktCount::total                 3075034                       # Packet count per connected requestor and responder (Count)
system.membus.pktSize_system.l2cache.mem_side_port::system.mem_ctrl.port     65672576                       # Cumulative packet size per connected requestor and responder (Byte)
system.membus.pktSize_system.l2cache.mem_side_port::total     65672576                       # Cumulative packet size per connected requestor and responder (Byte)
system.membus.pktSize::total                 65672576                       # Cumulative packet size per connected requestor and responder (Byte)
system.membus.snoops                                0                       # Total snoops (Count)
system.membus.snoopTraffic                          0                       # Total snoop traffic (Byte)
system.membus.snoopFanout::samples            2048898                       # Request fanout histogram (Count)
system.membus.snoopFanout::mean                     0                       # Request fanout histogram (Count)
system.membus.snoopFanout::stdev                    0                       # Request fanout histogram (Count)
system.membus.snoopFanout::underflows               0      0.00%      0.00% # Request fanout histogram (Count)
system.membus.snoopFanout::0                  2048898    100.00%    100.00% # Request fanout histogram (Count)
system.membus.snoopFanout::1                        0      0.00%    100.00% # Request fanout histogram (Count)
system.membus.snoopFanout::overflows                0      0.00%    100.00% # Request fanout histogram (Count)
system.membus.snoopFanout::min_value                0                       # Request fanout histogram (Count)
system.membus.snoopFanout::max_value                0                       # Request fanout histogram (Count)
system.membus.snoopFanout::total              2048898                       # Request fanout histogram (Count)
system.membus.power_state.pwrStateResidencyTicks::UNDEFINED 310864621000                       # Cumulative time (in ticks) in various power states (Tick)
system.membus.reqLayer2.occupancy          2050195000                       # Layer occupancy (ticks) (Tick)
system.membus.reqLayer2.utilization               0.0                       # Layer utilization (Ratio)
system.membus.respLayer0.occupancy         5445385250                       # Layer occupancy (ticks) (Tick)
system.membus.respLayer0.utilization              0.0                       # Layer utilization (Ratio)
system.membus.snoop_filter.totRequests        2048903                       # Total number of requests made to the snoop filter. (Count)
system.membus.snoop_filter.hitSingleRequests      1023027                       # Number of requests hitting in the snoop filter with a single holder of the requested data. (Count)
system.membus.snoop_filter.hitMultiRequests            0                       # Number of requests hitting in the snoop filter with multiple (>1) holders of the requested data. (Count)
system.membus.snoop_filter.totSnoops                0                       # Total number of snoops made to the snoop filter. (Count)
system.membus.snoop_filter.hitSingleSnoops            0                       # Number of snoops hitting in the snoop filter with a single holder of the requested data. (Count)
system.membus.snoop_filter.hitMultiSnoops            0                       # Number of snoops hitting in the snoop filter with multiple (>1) holders of the requested data. (Count)
system.workload.inst.arm                            0                       # number of arm instructions executed (Count)
system.workload.inst.quiesce                        0                       # number of quiesce instructions executed (Count)

---------- End Simulation Statistics   ----------
