
---------- Begin Simulation Statistics ----------
simSeconds                                   5.714297                       # Number of seconds simulated (Second)
simTicks                                 5714296912000                       # Number of ticks simulated (Tick)
finalTick                                5714296912000                       # Number of ticks from beginning of simulation (restored from checkpoints and never reset) (Tick)
simFreq                                  1000000000000                       # The number of ticks per simulated second ((Tick/Second))
hostSeconds                                   7993.23                       # Real time elapsed on the host (Second)
hostTickRate                                714892521                       # The number of ticks simulated per host second (ticks/s) ((Tick/Second))
hostMemory                                     724232                       # Number of bytes of host memory used (Byte)
simInsts                                   2493147497                       # Number of instructions simulated (Count)
simOps                                     4255247018                       # Number of ops (including micro ops) simulated (Count)
hostInstRate                                   311908                       # Simulator instruction rate (inst/s) ((Count/Second))
hostOpRate                                     532357                       # Simulator op (including micro ops) rate (op/s) ((Count/Second))
system.clk_domain.clock                          1000                       # Clock period in ticks (Tick)
system.clk_domain.voltage_domain.voltage            1                       # Voltage in Volts (Volt)
system.cpu.numCycles                       5714296913                       # Number of cpu cycles simulated (Cycle)
system.cpu.cpi                               2.292001                       # CPI: cycles per instruction (core level) ((Cycle/Count))
system.cpu.ipc                               0.436300                       # IPC: instructions per cycle (core level) ((Count/Cycle))
system.cpu.numWorkItemsStarted                      0                       # Number of work items this cpu started (Count)
system.cpu.numWorkItemsCompleted                    0                       # Number of work items this cpu completed (Count)
system.cpu.instsAdded                      5949381405                       # Number of instructions added to the IQ (excludes non-spec) (Count)
system.cpu.nonSpecInstsAdded                120286174                       # Number of non-speculative instructions added to the IQ (Count)
system.cpu.instsIssued                     4999670118                       # Number of instructions issued (Count)
system.cpu.squashedInstsIssued               14059949                       # Number of squashed instructions issued (Count)
system.cpu.squashedInstsExamined           1814420538                       # Number of squashed instructions iterated over during squash; mainly for profiling (Count)
system.cpu.squashedOperandsExamined        5007297676                       # Number of squashed operands that are examined and possibly removed from graph (Count)
system.cpu.squashedNonSpecRemoved            67670842                       # Number of squashed non-spec instructions that were removed (Count)
system.cpu.numIssuedDist::samples          5714272727                       # Number of insts issued each cycle (Count)
system.cpu.numIssuedDist::mean               0.874944                       # Number of insts issued each cycle (Count)
system.cpu.numIssuedDist::stdev              1.431700                       # Number of insts issued each cycle (Count)
system.cpu.numIssuedDist::underflows                0      0.00%      0.00% # Number of insts issued each cycle (Count)
system.cpu.numIssuedDist::0                3702283794     64.79%     64.79% # Number of insts issued each cycle (Count)
system.cpu.numIssuedDist::1                 510617962      8.94%     73.73% # Number of insts issued each cycle (Count)
system.cpu.numIssuedDist::2                 620299303     10.86%     84.58% # Number of insts issued each cycle (Count)
system.cpu.numIssuedDist::3                 534812332      9.36%     93.94% # Number of insts issued each cycle (Count)
system.cpu.numIssuedDist::4                 213985444      3.74%     97.69% # Number of insts issued each cycle (Count)
system.cpu.numIssuedDist::5                  64534671      1.13%     98.81% # Number of insts issued each cycle (Count)
system.cpu.numIssuedDist::6                  28734307      0.50%     99.32% # Number of insts issued each cycle (Count)
system.cpu.numIssuedDist::7                  19043731      0.33%     99.65% # Number of insts issued each cycle (Count)
system.cpu.numIssuedDist::8                  19961183      0.35%    100.00% # Number of insts issued each cycle (Count)
system.cpu.numIssuedDist::overflows                 0      0.00%    100.00% # Number of insts issued each cycle (Count)
system.cpu.numIssuedDist::min_value                 0                       # Number of insts issued each cycle (Count)
system.cpu.numIssuedDist::max_value                 8                       # Number of insts issued each cycle (Count)
system.cpu.numIssuedDist::total            5714272727                       # Number of insts issued each cycle (Count)
system.cpu.statFuBusy::No_OpClass                   0      0.00%      0.00% # attempts to use FU when none available (Count)
system.cpu.statFuBusy::IntAlu                  331435      2.51%      2.51% # attempts to use FU when none available (Count)
system.cpu.statFuBusy::IntMult                      0      0.00%      2.51% # attempts to use FU when none available (Count)
system.cpu.statFuBusy::IntDiv                       0      0.00%      2.51% # attempts to use FU when none available (Count)
system.cpu.statFuBusy::FloatAdd                     0      0.00%      2.51% # attempts to use FU when none available (Count)
system.cpu.statFuBusy::FloatCmp                     0      0.00%      2.51% # attempts to use FU when none available (Count)
system.cpu.statFuBusy::FloatCvt                     0      0.00%      2.51% # attempts to use FU when none available (Count)
system.cpu.statFuBusy::FloatMult                    0      0.00%      2.51% # attempts to use FU when none available (Count)
system.cpu.statFuBusy::FloatMultAcc                 0      0.00%      2.51% # attempts to use FU when none available (Count)
system.cpu.statFuBusy::FloatDiv                     0      0.00%      2.51% # attempts to use FU when none available (Count)
system.cpu.statFuBusy::FloatMisc                    0      0.00%      2.51% # attempts to use FU when none available (Count)
system.cpu.statFuBusy::FloatSqrt                    0      0.00%      2.51% # attempts to use FU when none available (Count)
system.cpu.statFuBusy::SimdAdd                      0      0.00%      2.51% # attempts to use FU when none available (Count)
system.cpu.statFuBusy::SimdAddAcc                   0      0.00%      2.51% # attempts to use FU when none available (Count)
system.cpu.statFuBusy::SimdAlu                      9      0.00%      2.51% # attempts to use FU when none available (Count)
system.cpu.statFuBusy::SimdCmp                      0      0.00%      2.51% # attempts to use FU when none available (Count)
system.cpu.statFuBusy::SimdCvt                      3      0.00%      2.51% # attempts to use FU when none available (Count)
system.cpu.statFuBusy::SimdMisc                     1      0.00%      2.51% # attempts to use FU when none available (Count)
system.cpu.statFuBusy::SimdMult                     0      0.00%      2.51% # attempts to use FU when none available (Count)
system.cpu.statFuBusy::SimdMultAcc                  0      0.00%      2.51% # attempts to use FU when none available (Count)
system.cpu.statFuBusy::SimdMatMultAcc               0      0.00%      2.51% # attempts to use FU when none available (Count)
system.cpu.statFuBusy::SimdShift                    0      0.00%      2.51% # attempts to use FU when none available (Count)
system.cpu.statFuBusy::SimdShiftAcc                 0      0.00%      2.51% # attempts to use FU when none available (Count)
system.cpu.statFuBusy::SimdDiv                      0      0.00%      2.51% # attempts to use FU when none available (Count)
system.cpu.statFuBusy::SimdSqrt                     0      0.00%      2.51% # attempts to use FU when none available (Count)
system.cpu.statFuBusy::SimdFloatAdd                 0      0.00%      2.51% # attempts to use FU when none available (Count)
system.cpu.statFuBusy::SimdFloatAlu                 0      0.00%      2.51% # attempts to use FU when none available (Count)
system.cpu.statFuBusy::SimdFloatCmp                 0      0.00%      2.51% # attempts to use FU when none available (Count)
system.cpu.statFuBusy::SimdFloatCvt                 0      0.00%      2.51% # attempts to use FU when none available (Count)
system.cpu.statFuBusy::SimdFloatDiv                 0      0.00%      2.51% # attempts to use FU when none available (Count)
system.cpu.statFuBusy::SimdFloatMisc                0      0.00%      2.51% # attempts to use FU when none available (Count)
system.cpu.statFuBusy::SimdFloatMult                0      0.00%      2.51% # attempts to use FU when none available (Count)
system.cpu.statFuBusy::SimdFloatMultAcc             0      0.00%      2.51% # attempts to use FU when none available (Count)
system.cpu.statFuBusy::SimdFloatMatMultAcc            0      0.00%      2.51% # attempts to use FU when none available (Count)
system.cpu.statFuBusy::SimdFloatSqrt                0      0.00%      2.51% # attempts to use FU when none available (Count)
system.cpu.statFuBusy::SimdReduceAdd                0      0.00%      2.51% # attempts to use FU when none available (Count)
system.cpu.statFuBusy::SimdReduceAlu                0      0.00%      2.51% # attempts to use FU when none available (Count)
system.cpu.statFuBusy::SimdReduceCmp                0      0.00%      2.51% # attempts to use FU when none available (Count)
system.cpu.statFuBusy::SimdFloatReduceAdd            0      0.00%      2.51% # attempts to use FU when none available (Count)
system.cpu.statFuBusy::SimdFloatReduceCmp            0      0.00%      2.51% # attempts to use FU when none available (Count)
system.cpu.statFuBusy::SimdAes                      0      0.00%      2.51% # attempts to use FU when none available (Count)
system.cpu.statFuBusy::SimdAesMix                   0      0.00%      2.51% # attempts to use FU when none available (Count)
system.cpu.statFuBusy::SimdSha1Hash                 0      0.00%      2.51% # attempts to use FU when none available (Count)
system.cpu.statFuBusy::SimdSha1Hash2                0      0.00%      2.51% # attempts to use FU when none available (Count)
system.cpu.statFuBusy::SimdSha256Hash               0      0.00%      2.51% # attempts to use FU when none available (Count)
system.cpu.statFuBusy::SimdSha256Hash2              0      0.00%      2.51% # attempts to use FU when none available (Count)
system.cpu.statFuBusy::SimdShaSigma2                0      0.00%      2.51% # attempts to use FU when none available (Count)
system.cpu.statFuBusy::SimdShaSigma3                0      0.00%      2.51% # attempts to use FU when none available (Count)
system.cpu.statFuBusy::SimdPredAlu                  0      0.00%      2.51% # attempts to use FU when none available (Count)
system.cpu.statFuBusy::Matrix                       0      0.00%      2.51% # attempts to use FU when none available (Count)
system.cpu.statFuBusy::MatrixMov                    0      0.00%      2.51% # attempts to use FU when none available (Count)
system.cpu.statFuBusy::MatrixOP                     0      0.00%      2.51% # attempts to use FU when none available (Count)
system.cpu.statFuBusy::MemRead               12882103     97.43%     99.94% # attempts to use FU when none available (Count)
system.cpu.statFuBusy::MemWrite                  8560      0.06%    100.00% # attempts to use FU when none available (Count)
system.cpu.statFuBusy::FloatMemRead                 3      0.00%    100.00% # attempts to use FU when none available (Count)
system.cpu.statFuBusy::FloatMemWrite               27      0.00%    100.00% # attempts to use FU when none available (Count)
system.cpu.statFuBusy::IprAccess                    0      0.00%    100.00% # attempts to use FU when none available (Count)
system.cpu.statFuBusy::InstPrefetch                 0      0.00%    100.00% # attempts to use FU when none available (Count)
system.cpu.statFuBusy::VectorUnitStrideLoad            0      0.00%    100.00% # attempts to use FU when none available (Count)
system.cpu.statFuBusy::VectorUnitStrideStore            0      0.00%    100.00% # attempts to use FU when none available (Count)
system.cpu.statFuBusy::VectorUnitStrideMaskLoad            0      0.00%    100.00% # attempts to use FU when none available (Count)
system.cpu.statFuBusy::VectorUnitStrideMaskStore            0      0.00%    100.00% # attempts to use FU when none available (Count)
system.cpu.statFuBusy::VectorStridedLoad            0      0.00%    100.00% # attempts to use FU when none available (Count)
system.cpu.statFuBusy::VectorStridedStore            0      0.00%    100.00% # attempts to use FU when none available (Count)
system.cpu.statFuBusy::VectorIndexedLoad            0      0.00%    100.00% # attempts to use FU when none available (Count)
system.cpu.statFuBusy::VectorIndexedStore            0      0.00%    100.00% # attempts to use FU when none available (Count)
system.cpu.statFuBusy::VectorUnitStrideFaultOnlyFirstLoad            0      0.00%    100.00% # attempts to use FU when none available (Count)
system.cpu.statFuBusy::VectorWholeRegisterLoad            0      0.00%    100.00% # attempts to use FU when none available (Count)
system.cpu.statFuBusy::VectorWholeRegisterStore            0      0.00%    100.00% # attempts to use FU when none available (Count)
system.cpu.statFuBusy::VectorIntegerArith            0      0.00%    100.00% # attempts to use FU when none available (Count)
system.cpu.statFuBusy::VectorFloatArith             0      0.00%    100.00% # attempts to use FU when none available (Count)
system.cpu.statFuBusy::VectorFloatConvert            0      0.00%    100.00% # attempts to use FU when none available (Count)
system.cpu.statFuBusy::VectorIntegerReduce            0      0.00%    100.00% # attempts to use FU when none available (Count)
system.cpu.statFuBusy::VectorFloatReduce            0      0.00%    100.00% # attempts to use FU when none available (Count)
system.cpu.statFuBusy::VectorMisc                   0      0.00%    100.00% # attempts to use FU when none available (Count)
system.cpu.statFuBusy::VectorIntegerExtension            0      0.00%    100.00% # attempts to use FU when none available (Count)
system.cpu.statFuBusy::VectorConfig                 0      0.00%    100.00% # attempts to use FU when none available (Count)
system.cpu.statIssuedInstType_0::No_OpClass          871      0.00%      0.00% # Number of instructions issued per FU type, per thread (Count)
system.cpu.statIssuedInstType_0::IntAlu    3588346070     71.77%     71.77% # Number of instructions issued per FU type, per thread (Count)
system.cpu.statIssuedInstType_0::IntMult     18928692      0.38%     72.15% # Number of instructions issued per FU type, per thread (Count)
system.cpu.statIssuedInstType_0::IntDiv        923526      0.02%     72.17% # Number of instructions issued per FU type, per thread (Count)
system.cpu.statIssuedInstType_0::FloatAdd          328      0.00%     72.17% # Number of instructions issued per FU type, per thread (Count)
system.cpu.statIssuedInstType_0::FloatCmp            0      0.00%     72.17% # Number of instructions issued per FU type, per thread (Count)
system.cpu.statIssuedInstType_0::FloatCvt            0      0.00%     72.17% # Number of instructions issued per FU type, per thread (Count)
system.cpu.statIssuedInstType_0::FloatMult            0      0.00%     72.17% # Number of instructions issued per FU type, per thread (Count)
system.cpu.statIssuedInstType_0::FloatMultAcc            0      0.00%     72.17% # Number of instructions issued per FU type, per thread (Count)
system.cpu.statIssuedInstType_0::FloatDiv            0      0.00%     72.17% # Number of instructions issued per FU type, per thread (Count)
system.cpu.statIssuedInstType_0::FloatMisc            0      0.00%     72.17% # Number of instructions issued per FU type, per thread (Count)
system.cpu.statIssuedInstType_0::FloatSqrt            0      0.00%     72.17% # Number of instructions issued per FU type, per thread (Count)
system.cpu.statIssuedInstType_0::SimdAdd            0      0.00%     72.17% # Number of instructions issued per FU type, per thread (Count)
system.cpu.statIssuedInstType_0::SimdAddAcc            0      0.00%     72.17% # Number of instructions issued per FU type, per thread (Count)
system.cpu.statIssuedInstType_0::SimdAlu         1610      0.00%     72.17% # Number of instructions issued per FU type, per thread (Count)
system.cpu.statIssuedInstType_0::SimdCmp            0      0.00%     72.17% # Number of instructions issued per FU type, per thread (Count)
system.cpu.statIssuedInstType_0::SimdCvt         1823      0.00%     72.17% # Number of instructions issued per FU type, per thread (Count)
system.cpu.statIssuedInstType_0::SimdMisc         3231      0.00%     72.17% # Number of instructions issued per FU type, per thread (Count)
system.cpu.statIssuedInstType_0::SimdMult            0      0.00%     72.17% # Number of instructions issued per FU type, per thread (Count)
system.cpu.statIssuedInstType_0::SimdMultAcc            0      0.00%     72.17% # Number of instructions issued per FU type, per thread (Count)
system.cpu.statIssuedInstType_0::SimdMatMultAcc            0      0.00%     72.17% # Number of instructions issued per FU type, per thread (Count)
system.cpu.statIssuedInstType_0::SimdShift            0      0.00%     72.17% # Number of instructions issued per FU type, per thread (Count)
system.cpu.statIssuedInstType_0::SimdShiftAcc            0      0.00%     72.17% # Number of instructions issued per FU type, per thread (Count)
system.cpu.statIssuedInstType_0::SimdDiv            0      0.00%     72.17% # Number of instructions issued per FU type, per thread (Count)
system.cpu.statIssuedInstType_0::SimdSqrt            0      0.00%     72.17% # Number of instructions issued per FU type, per thread (Count)
system.cpu.statIssuedInstType_0::SimdFloatAdd            0      0.00%     72.17% # Number of instructions issued per FU type, per thread (Count)
system.cpu.statIssuedInstType_0::SimdFloatAlu            0      0.00%     72.17% # Number of instructions issued per FU type, per thread (Count)
system.cpu.statIssuedInstType_0::SimdFloatCmp            0      0.00%     72.17% # Number of instructions issued per FU type, per thread (Count)
system.cpu.statIssuedInstType_0::SimdFloatCvt            0      0.00%     72.17% # Number of instructions issued per FU type, per thread (Count)
system.cpu.statIssuedInstType_0::SimdFloatDiv            0      0.00%     72.17% # Number of instructions issued per FU type, per thread (Count)
system.cpu.statIssuedInstType_0::SimdFloatMisc            0      0.00%     72.17% # Number of instructions issued per FU type, per thread (Count)
system.cpu.statIssuedInstType_0::SimdFloatMult            0      0.00%     72.17% # Number of instructions issued per FU type, per thread (Count)
system.cpu.statIssuedInstType_0::SimdFloatMultAcc            0      0.00%     72.17% # Number of instructions issued per FU type, per thread (Count)
system.cpu.statIssuedInstType_0::SimdFloatMatMultAcc            0      0.00%     72.17% # Number of instructions issued per FU type, per thread (Count)
system.cpu.statIssuedInstType_0::SimdFloatSqrt            0      0.00%     72.17% # Number of instructions issued per FU type, per thread (Count)
system.cpu.statIssuedInstType_0::SimdReduceAdd            0      0.00%     72.17% # Number of instructions issued per FU type, per thread (Count)
system.cpu.statIssuedInstType_0::SimdReduceAlu            0      0.00%     72.17% # Number of instructions issued per FU type, per thread (Count)
system.cpu.statIssuedInstType_0::SimdReduceCmp            0      0.00%     72.17% # Number of instructions issued per FU type, per thread (Count)
system.cpu.statIssuedInstType_0::SimdFloatReduceAdd            0      0.00%     72.17% # Number of instructions issued per FU type, per thread (Count)
system.cpu.statIssuedInstType_0::SimdFloatReduceCmp            0      0.00%     72.17% # Number of instructions issued per FU type, per thread (Count)
system.cpu.statIssuedInstType_0::SimdAes            0      0.00%     72.17% # Number of instructions issued per FU type, per thread (Count)
system.cpu.statIssuedInstType_0::SimdAesMix            0      0.00%     72.17% # Number of instructions issued per FU type, per thread (Count)
system.cpu.statIssuedInstType_0::SimdSha1Hash            0      0.00%     72.17% # Number of instructions issued per FU type, per thread (Count)
system.cpu.statIssuedInstType_0::SimdSha1Hash2            0      0.00%     72.17% # Number of instructions issued per FU type, per thread (Count)
system.cpu.statIssuedInstType_0::SimdSha256Hash            0      0.00%     72.17% # Number of instructions issued per FU type, per thread (Count)
system.cpu.statIssuedInstType_0::SimdSha256Hash2            0      0.00%     72.17% # Number of instructions issued per FU type, per thread (Count)
system.cpu.statIssuedInstType_0::SimdShaSigma2            0      0.00%     72.17% # Number of instructions issued per FU type, per thread (Count)
system.cpu.statIssuedInstType_0::SimdShaSigma3            0      0.00%     72.17% # Number of instructions issued per FU type, per thread (Count)
system.cpu.statIssuedInstType_0::SimdPredAlu            0      0.00%     72.17% # Number of instructions issued per FU type, per thread (Count)
system.cpu.statIssuedInstType_0::Matrix             0      0.00%     72.17% # Number of instructions issued per FU type, per thread (Count)
system.cpu.statIssuedInstType_0::MatrixMov            0      0.00%     72.17% # Number of instructions issued per FU type, per thread (Count)
system.cpu.statIssuedInstType_0::MatrixOP            0      0.00%     72.17% # Number of instructions issued per FU type, per thread (Count)
system.cpu.statIssuedInstType_0::MemRead    918503617     18.37%     90.54% # Number of instructions issued per FU type, per thread (Count)
system.cpu.statIssuedInstType_0::MemWrite    472959184      9.46%    100.00% # Number of instructions issued per FU type, per thread (Count)
system.cpu.statIssuedInstType_0::FloatMemRead          938      0.00%    100.00% # Number of instructions issued per FU type, per thread (Count)
system.cpu.statIssuedInstType_0::FloatMemWrite          228      0.00%    100.00% # Number of instructions issued per FU type, per thread (Count)
system.cpu.statIssuedInstType_0::IprAccess            0      0.00%    100.00% # Number of instructions issued per FU type, per thread (Count)
system.cpu.statIssuedInstType_0::InstPrefetch            0      0.00%    100.00% # Number of instructions issued per FU type, per thread (Count)
system.cpu.statIssuedInstType_0::VectorUnitStrideLoad            0      0.00%    100.00% # Number of instructions issued per FU type, per thread (Count)
system.cpu.statIssuedInstType_0::VectorUnitStrideStore            0      0.00%    100.00% # Number of instructions issued per FU type, per thread (Count)
system.cpu.statIssuedInstType_0::VectorUnitStrideMaskLoad            0      0.00%    100.00% # Number of instructions issued per FU type, per thread (Count)
system.cpu.statIssuedInstType_0::VectorUnitStrideMaskStore            0      0.00%    100.00% # Number of instructions issued per FU type, per thread (Count)
system.cpu.statIssuedInstType_0::VectorStridedLoad            0      0.00%    100.00% # Number of instructions issued per FU type, per thread (Count)
system.cpu.statIssuedInstType_0::VectorStridedStore            0      0.00%    100.00% # Number of instructions issued per FU type, per thread (Count)
system.cpu.statIssuedInstType_0::VectorIndexedLoad            0      0.00%    100.00% # Number of instructions issued per FU type, per thread (Count)
system.cpu.statIssuedInstType_0::VectorIndexedStore            0      0.00%    100.00% # Number of instructions issued per FU type, per thread (Count)
system.cpu.statIssuedInstType_0::VectorUnitStrideFaultOnlyFirstLoad            0      0.00%    100.00% # Number of instructions issued per FU type, per thread (Count)
system.cpu.statIssuedInstType_0::VectorWholeRegisterLoad            0      0.00%    100.00% # Number of instructions issued per FU type, per thread (Count)
system.cpu.statIssuedInstType_0::VectorWholeRegisterStore            0      0.00%    100.00% # Number of instructions issued per FU type, per thread (Count)
system.cpu.statIssuedInstType_0::VectorIntegerArith            0      0.00%    100.00% # Number of instructions issued per FU type, per thread (Count)
system.cpu.statIssuedInstType_0::VectorFloatArith            0      0.00%    100.00% # Number of instructions issued per FU type, per thread (Count)
system.cpu.statIssuedInstType_0::VectorFloatConvert            0      0.00%    100.00% # Number of instructions issued per FU type, per thread (Count)
system.cpu.statIssuedInstType_0::VectorIntegerReduce            0      0.00%    100.00% # Number of instructions issued per FU type, per thread (Count)
system.cpu.statIssuedInstType_0::VectorFloatReduce            0      0.00%    100.00% # Number of instructions issued per FU type, per thread (Count)
system.cpu.statIssuedInstType_0::VectorMisc            0      0.00%    100.00% # Number of instructions issued per FU type, per thread (Count)
system.cpu.statIssuedInstType_0::VectorIntegerExtension            0      0.00%    100.00% # Number of instructions issued per FU type, per thread (Count)
system.cpu.statIssuedInstType_0::VectorConfig            0      0.00%    100.00% # Number of instructions issued per FU type, per thread (Count)
system.cpu.statIssuedInstType_0::total     4999670118                       # Number of instructions issued per FU type, per thread (Count)
system.cpu.issueRate                         0.874941                       # Inst issue rate ((Count/Cycle))
system.cpu.fuBusy                            13222141                       # FU busy when requested (Count)
system.cpu.fuBusyRate                        0.002645                       # FU busy rate (busy events/executed inst) ((Count/Count))
system.cpu.intInstQueueReads              15740876378                       # Number of integer instruction queue reads (Count)
system.cpu.intInstQueueWrites              7905009026                       # Number of integer instruction queue writes (Count)
system.cpu.intInstQueueWakeupAccesses      4972732381                       # Number of integer instruction queue wakeup accesses (Count)
system.cpu.fpInstQueueReads                     18675                       # Number of floating instruction queue reads (Count)
system.cpu.fpInstQueueWrites                     9532                       # Number of floating instruction queue writes (Count)
system.cpu.fpInstQueueWakeupAccesses             9263                       # Number of floating instruction queue wakeup accesses (Count)
system.cpu.vecInstQueueReads                        0                       # Number of vector instruction queue reads (Count)
system.cpu.vecInstQueueWrites                       0                       # Number of vector instruction queue writes (Count)
system.cpu.vecInstQueueWakeupAccesses               0                       # Number of vector instruction queue wakeup accesses (Count)
system.cpu.intAluAccesses                  5012882045                       # Number of integer alu accesses (Count)
system.cpu.fpAluAccesses                         9343                       # Number of floating point alu accesses (Count)
system.cpu.vecAluAccesses                           0                       # Number of vector alu accesses (Count)
system.cpu.numSquashedInsts                  14797019                       # Number of squashed instructions skipped in execute (Count)
system.cpu.numSwp                                   0                       # Number of swp insts executed (Count)
system.cpu.timesIdled                             626                       # Number of times that the entire CPU went into an idle state and unscheduled itself (Count)
system.cpu.idleCycles                           24186                       # Total number of cycles that the CPU has spent unscheduled due to idling (Cycle)
system.cpu.MemDepUnit__0.insertedLoads     1220503843                       # Number of loads inserted to the mem dependence unit. (Count)
system.cpu.MemDepUnit__0.insertedStores     688482822                       # Number of stores inserted to the mem dependence unit. (Count)
system.cpu.MemDepUnit__0.conflictingLoads   1067245191                       # Number of conflicting loads. (Count)
system.cpu.MemDepUnit__0.conflictingStores    562301659                       # Number of conflicting stores. (Count)
system.cpu.MemDepUnit__1.insertedLoads              0                       # Number of loads inserted to the mem dependence unit. (Count)
system.cpu.MemDepUnit__1.insertedStores             0                       # Number of stores inserted to the mem dependence unit. (Count)
system.cpu.MemDepUnit__1.conflictingLoads            0                       # Number of conflicting loads. (Count)
system.cpu.MemDepUnit__1.conflictingStores            0                       # Number of conflicting stores. (Count)
system.cpu.MemDepUnit__2.insertedLoads              0                       # Number of loads inserted to the mem dependence unit. (Count)
system.cpu.MemDepUnit__2.insertedStores             0                       # Number of stores inserted to the mem dependence unit. (Count)
system.cpu.MemDepUnit__2.conflictingLoads            0                       # Number of conflicting loads. (Count)
system.cpu.MemDepUnit__2.conflictingStores            0                       # Number of conflicting stores. (Count)
system.cpu.MemDepUnit__3.insertedLoads              0                       # Number of loads inserted to the mem dependence unit. (Count)
system.cpu.MemDepUnit__3.insertedStores             0                       # Number of stores inserted to the mem dependence unit. (Count)
system.cpu.MemDepUnit__3.conflictingLoads            0                       # Number of conflicting loads. (Count)
system.cpu.MemDepUnit__3.conflictingStores            0                       # Number of conflicting stores. (Count)
system.cpu.branchPred.lookups               515906944                       # Number of BP lookups (Count)
system.cpu.branchPred.condPredicted         502983936                       # Number of conditional branches predicted (Count)
system.cpu.branchPred.condIncorrect           2381750                       # Number of conditional branches incorrect (Count)
system.cpu.branchPred.BTBLookups            466867068                       # Number of BTB lookups (Count)
system.cpu.branchPred.BTBUpdates                67284                       # Number of BTB updates (Count)
system.cpu.branchPred.BTBHits               466866008                       # Number of BTB hits (Count)
system.cpu.branchPred.BTBHitRatio            0.999998                       # BTB Hit Ratio (Ratio)
system.cpu.branchPred.RASUsed                 2003084                       # Number of times the RAS was used to get a target. (Count)
system.cpu.branchPred.RASIncorrect                  2                       # Number of incorrect RAS predictions. (Count)
system.cpu.branchPred.indirectLookups            1324                       # Number of indirect predictor lookups. (Count)
system.cpu.branchPred.indirectHits               1129                       # Number of indirect target hits. (Count)
system.cpu.branchPred.indirectMisses              195                       # Number of indirect misses. (Count)
system.cpu.branchPred.indirectMispredicted          249                       # Number of mispredicted indirect branches. (Count)
system.cpu.commit.commitSquashedInsts      1814417702                       # The number of squashed insts skipped by commit (Count)
system.cpu.commit.commitNonSpecStalls        52615332                       # The number of times commit has been forced to stall to communicate backwards (Count)
system.cpu.commit.branchMispredicts           2381296                       # The number of times a branch was mispredicted (Count)
system.cpu.commit.numCommittedDist::samples   5475996961                       # Number of insts commited each cycle (Count)
system.cpu.commit.numCommittedDist::mean     0.777073                       # Number of insts commited each cycle (Count)
system.cpu.commit.numCommittedDist::stdev     1.595190                       # Number of insts commited each cycle (Count)
system.cpu.commit.numCommittedDist::underflows            0      0.00%      0.00% # Number of insts commited each cycle (Count)
system.cpu.commit.numCommittedDist::0      3951865807     72.17%     72.17% # Number of insts commited each cycle (Count)
system.cpu.commit.numCommittedDist::1       464156482      8.48%     80.64% # Number of insts commited each cycle (Count)
system.cpu.commit.numCommittedDist::2       362310044      6.62%     87.26% # Number of insts commited each cycle (Count)
system.cpu.commit.numCommittedDist::3       344326333      6.29%     93.55% # Number of insts commited each cycle (Count)
system.cpu.commit.numCommittedDist::4         4446958      0.08%     93.63% # Number of insts commited each cycle (Count)
system.cpu.commit.numCommittedDist::5       228206321      4.17%     97.80% # Number of insts commited each cycle (Count)
system.cpu.commit.numCommittedDist::6        45330548      0.83%     98.62% # Number of insts commited each cycle (Count)
system.cpu.commit.numCommittedDist::7          147020      0.00%     98.63% # Number of insts commited each cycle (Count)
system.cpu.commit.numCommittedDist::8        75207448      1.37%    100.00% # Number of insts commited each cycle (Count)
system.cpu.commit.numCommittedDist::overflows            0      0.00%    100.00% # Number of insts commited each cycle (Count)
system.cpu.commit.numCommittedDist::min_value            0                       # Number of insts commited each cycle (Count)
system.cpu.commit.numCommittedDist::max_value            8                       # Number of insts commited each cycle (Count)
system.cpu.commit.numCommittedDist::total   5475996961                       # Number of insts commited each cycle (Count)
system.cpu.commit.amos                              0                       # Number of atomic instructions committed (Count)
system.cpu.commit.membars                    52615332                       # Number of memory barriers committed (Count)
system.cpu.commit.functionCalls               1980150                       # Number of function calls committed. (Count)
system.cpu.commit.committedInstType_0::No_OpClass          629      0.00%      0.00% # Class of committed instruction (Count)
system.cpu.commit.committedInstType_0::IntAlu   2957296057     69.50%     69.50% # Class of committed instruction (Count)
system.cpu.commit.committedInstType_0::IntMult     18857171      0.44%     69.94% # Class of committed instruction (Count)
system.cpu.commit.committedInstType_0::IntDiv       923468      0.02%     69.96% # Class of committed instruction (Count)
system.cpu.commit.committedInstType_0::FloatAdd          328      0.00%     69.96% # Class of committed instruction (Count)
system.cpu.commit.committedInstType_0::FloatCmp            0      0.00%     69.96% # Class of committed instruction (Count)
system.cpu.commit.committedInstType_0::FloatCvt            0      0.00%     69.96% # Class of committed instruction (Count)
system.cpu.commit.committedInstType_0::FloatMult            0      0.00%     69.96% # Class of committed instruction (Count)
system.cpu.commit.committedInstType_0::FloatMultAcc            0      0.00%     69.96% # Class of committed instruction (Count)
system.cpu.commit.committedInstType_0::FloatDiv            0      0.00%     69.96% # Class of committed instruction (Count)
system.cpu.commit.committedInstType_0::FloatMisc            0      0.00%     69.96% # Class of committed instruction (Count)
system.cpu.commit.committedInstType_0::FloatSqrt            0      0.00%     69.96% # Class of committed instruction (Count)
system.cpu.commit.committedInstType_0::SimdAdd            0      0.00%     69.96% # Class of committed instruction (Count)
system.cpu.commit.committedInstType_0::SimdAddAcc            0      0.00%     69.96% # Class of committed instruction (Count)
system.cpu.commit.committedInstType_0::SimdAlu         1602      0.00%     69.96% # Class of committed instruction (Count)
system.cpu.commit.committedInstType_0::SimdCmp            0      0.00%     69.96% # Class of committed instruction (Count)
system.cpu.commit.committedInstType_0::SimdCvt         1814      0.00%     69.96% # Class of committed instruction (Count)
system.cpu.commit.committedInstType_0::SimdMisc         3230      0.00%     69.96% # Class of committed instruction (Count)
system.cpu.commit.committedInstType_0::SimdMult            0      0.00%     69.96% # Class of committed instruction (Count)
system.cpu.commit.committedInstType_0::SimdMultAcc            0      0.00%     69.96% # Class of committed instruction (Count)
system.cpu.commit.committedInstType_0::SimdMatMultAcc            0      0.00%     69.96% # Class of committed instruction (Count)
system.cpu.commit.committedInstType_0::SimdShift            0      0.00%     69.96% # Class of committed instruction (Count)
system.cpu.commit.committedInstType_0::SimdShiftAcc            0      0.00%     69.96% # Class of committed instruction (Count)
system.cpu.commit.committedInstType_0::SimdDiv            0      0.00%     69.96% # Class of committed instruction (Count)
system.cpu.commit.committedInstType_0::SimdSqrt            0      0.00%     69.96% # Class of committed instruction (Count)
system.cpu.commit.committedInstType_0::SimdFloatAdd            0      0.00%     69.96% # Class of committed instruction (Count)
system.cpu.commit.committedInstType_0::SimdFloatAlu            0      0.00%     69.96% # Class of committed instruction (Count)
system.cpu.commit.committedInstType_0::SimdFloatCmp            0      0.00%     69.96% # Class of committed instruction (Count)
system.cpu.commit.committedInstType_0::SimdFloatCvt            0      0.00%     69.96% # Class of committed instruction (Count)
system.cpu.commit.committedInstType_0::SimdFloatDiv            0      0.00%     69.96% # Class of committed instruction (Count)
system.cpu.commit.committedInstType_0::SimdFloatMisc            0      0.00%     69.96% # Class of committed instruction (Count)
system.cpu.commit.committedInstType_0::SimdFloatMult            0      0.00%     69.96% # Class of committed instruction (Count)
system.cpu.commit.committedInstType_0::SimdFloatMultAcc            0      0.00%     69.96% # Class of committed instruction (Count)
system.cpu.commit.committedInstType_0::SimdFloatMatMultAcc            0      0.00%     69.96% # Class of committed instruction (Count)
system.cpu.commit.committedInstType_0::SimdFloatSqrt            0      0.00%     69.96% # Class of committed instruction (Count)
system.cpu.commit.committedInstType_0::SimdReduceAdd            0      0.00%     69.96% # Class of committed instruction (Count)
system.cpu.commit.committedInstType_0::SimdReduceAlu            0      0.00%     69.96% # Class of committed instruction (Count)
system.cpu.commit.committedInstType_0::SimdReduceCmp            0      0.00%     69.96% # Class of committed instruction (Count)
system.cpu.commit.committedInstType_0::SimdFloatReduceAdd            0      0.00%     69.96% # Class of committed instruction (Count)
system.cpu.commit.committedInstType_0::SimdFloatReduceCmp            0      0.00%     69.96% # Class of committed instruction (Count)
system.cpu.commit.committedInstType_0::SimdAes            0      0.00%     69.96% # Class of committed instruction (Count)
system.cpu.commit.committedInstType_0::SimdAesMix            0      0.00%     69.96% # Class of committed instruction (Count)
system.cpu.commit.committedInstType_0::SimdSha1Hash            0      0.00%     69.96% # Class of committed instruction (Count)
system.cpu.commit.committedInstType_0::SimdSha1Hash2            0      0.00%     69.96% # Class of committed instruction (Count)
system.cpu.commit.committedInstType_0::SimdSha256Hash            0      0.00%     69.96% # Class of committed instruction (Count)
system.cpu.commit.committedInstType_0::SimdSha256Hash2            0      0.00%     69.96% # Class of committed instruction (Count)
system.cpu.commit.committedInstType_0::SimdShaSigma2            0      0.00%     69.96% # Class of committed instruction (Count)
system.cpu.commit.committedInstType_0::SimdShaSigma3            0      0.00%     69.96% # Class of committed instruction (Count)
system.cpu.commit.committedInstType_0::SimdPredAlu            0      0.00%     69.96% # Class of committed instruction (Count)
system.cpu.commit.committedInstType_0::Matrix            0      0.00%     69.96% # Class of committed instruction (Count)
system.cpu.commit.committedInstType_0::MatrixMov            0      0.00%     69.96% # Class of committed instruction (Count)
system.cpu.commit.committedInstType_0::MatrixOP            0      0.00%     69.96% # Class of committed instruction (Count)
system.cpu.commit.committedInstType_0::MemRead    832471158     19.56%     89.53% # Class of committed instruction (Count)
system.cpu.commit.committedInstType_0::MemWrite    445690479     10.47%    100.00% # Class of committed instruction (Count)
system.cpu.commit.committedInstType_0::FloatMemRead          922      0.00%    100.00% # Class of committed instruction (Count)
system.cpu.commit.committedInstType_0::FloatMemWrite          160      0.00%    100.00% # Class of committed instruction (Count)
system.cpu.commit.committedInstType_0::IprAccess            0      0.00%    100.00% # Class of committed instruction (Count)
system.cpu.commit.committedInstType_0::InstPrefetch            0      0.00%    100.00% # Class of committed instruction (Count)
system.cpu.commit.committedInstType_0::VectorUnitStrideLoad            0      0.00%    100.00% # Class of committed instruction (Count)
system.cpu.commit.committedInstType_0::VectorUnitStrideStore            0      0.00%    100.00% # Class of committed instruction (Count)
system.cpu.commit.committedInstType_0::VectorUnitStrideMaskLoad            0      0.00%    100.00% # Class of committed instruction (Count)
system.cpu.commit.committedInstType_0::VectorUnitStrideMaskStore            0      0.00%    100.00% # Class of committed instruction (Count)
system.cpu.commit.committedInstType_0::VectorStridedLoad            0      0.00%    100.00% # Class of committed instruction (Count)
system.cpu.commit.committedInstType_0::VectorStridedStore            0      0.00%    100.00% # Class of committed instruction (Count)
system.cpu.commit.committedInstType_0::VectorIndexedLoad            0      0.00%    100.00% # Class of committed instruction (Count)
system.cpu.commit.committedInstType_0::VectorIndexedStore            0      0.00%    100.00% # Class of committed instruction (Count)
system.cpu.commit.committedInstType_0::VectorUnitStrideFaultOnlyFirstLoad            0      0.00%    100.00% # Class of committed instruction (Count)
system.cpu.commit.committedInstType_0::VectorWholeRegisterLoad            0      0.00%    100.00% # Class of committed instruction (Count)
system.cpu.commit.committedInstType_0::VectorWholeRegisterStore            0      0.00%    100.00% # Class of committed instruction (Count)
system.cpu.commit.committedInstType_0::VectorIntegerArith            0      0.00%    100.00% # Class of committed instruction (Count)
system.cpu.commit.committedInstType_0::VectorFloatArith            0      0.00%    100.00% # Class of committed instruction (Count)
system.cpu.commit.committedInstType_0::VectorFloatConvert            0      0.00%    100.00% # Class of committed instruction (Count)
system.cpu.commit.committedInstType_0::VectorIntegerReduce            0      0.00%    100.00% # Class of committed instruction (Count)
system.cpu.commit.committedInstType_0::VectorFloatReduce            0      0.00%    100.00% # Class of committed instruction (Count)
system.cpu.commit.committedInstType_0::VectorMisc            0      0.00%    100.00% # Class of committed instruction (Count)
system.cpu.commit.committedInstType_0::VectorIntegerExtension            0      0.00%    100.00% # Class of committed instruction (Count)
system.cpu.commit.committedInstType_0::VectorConfig            0      0.00%    100.00% # Class of committed instruction (Count)
system.cpu.commit.committedInstType_0::total   4255247018                       # Class of committed instruction (Count)
system.cpu.commit.commitEligibleSamples      75207448                       # number cycles where commit BW limit reached (Cycle)
system.cpu.commitStats0.numInsts           2493147497                       # Number of instructions committed (thread level) (Count)
system.cpu.commitStats0.numOps             4255247018                       # Number of ops (including micro ops) committed (thread level) (Count)
system.cpu.commitStats0.numInstsNotNOP     2493147497                       # Number of instructions committed excluding NOPs or prefetches (Count)
system.cpu.commitStats0.numOpsNotNOP       4255247018                       # Number of Ops (including micro ops) Simulated (Count)
system.cpu.commitStats0.cpi                  2.292001                       # CPI: cycles per instruction (thread level) ((Cycle/Count))
system.cpu.commitStats0.ipc                  0.436300                       # IPC: instructions per cycle (thread level) ((Count/Cycle))
system.cpu.commitStats0.numMemRefs         1278162719                       # Number of memory references committed (Count)
system.cpu.commitStats0.numFpInsts               9194                       # Number of float instructions (Count)
system.cpu.commitStats0.numIntInsts        4202491588                       # Number of integer instructions (Count)
system.cpu.commitStats0.numLoadInsts        832472080                       # Number of load instructions (Count)
system.cpu.commitStats0.numStoreInsts       445690639                       # Number of store instructions (Count)
system.cpu.commitStats0.numVecInsts                 0                       # Number of vector instructions (Count)
system.cpu.commitStats0.committedInstType::No_OpClass          629      0.00%      0.00% # Class of committed instruction. (Count)
system.cpu.commitStats0.committedInstType::IntAlu   2957296057     69.50%     69.50% # Class of committed instruction. (Count)
system.cpu.commitStats0.committedInstType::IntMult     18857171      0.44%     69.94% # Class of committed instruction. (Count)
system.cpu.commitStats0.committedInstType::IntDiv       923468      0.02%     69.96% # Class of committed instruction. (Count)
system.cpu.commitStats0.committedInstType::FloatAdd          328      0.00%     69.96% # Class of committed instruction. (Count)
system.cpu.commitStats0.committedInstType::FloatCmp            0      0.00%     69.96% # Class of committed instruction. (Count)
system.cpu.commitStats0.committedInstType::FloatCvt            0      0.00%     69.96% # Class of committed instruction. (Count)
system.cpu.commitStats0.committedInstType::FloatMult            0      0.00%     69.96% # Class of committed instruction. (Count)
system.cpu.commitStats0.committedInstType::FloatMultAcc            0      0.00%     69.96% # Class of committed instruction. (Count)
system.cpu.commitStats0.committedInstType::FloatDiv            0      0.00%     69.96% # Class of committed instruction. (Count)
system.cpu.commitStats0.committedInstType::FloatMisc            0      0.00%     69.96% # Class of committed instruction. (Count)
system.cpu.commitStats0.committedInstType::FloatSqrt            0      0.00%     69.96% # Class of committed instruction. (Count)
system.cpu.commitStats0.committedInstType::SimdAdd            0      0.00%     69.96% # Class of committed instruction. (Count)
system.cpu.commitStats0.committedInstType::SimdAddAcc            0      0.00%     69.96% # Class of committed instruction. (Count)
system.cpu.commitStats0.committedInstType::SimdAlu         1602      0.00%     69.96% # Class of committed instruction. (Count)
system.cpu.commitStats0.committedInstType::SimdCmp            0      0.00%     69.96% # Class of committed instruction. (Count)
system.cpu.commitStats0.committedInstType::SimdCvt         1814      0.00%     69.96% # Class of committed instruction. (Count)
system.cpu.commitStats0.committedInstType::SimdMisc         3230      0.00%     69.96% # Class of committed instruction. (Count)
system.cpu.commitStats0.committedInstType::SimdMult            0      0.00%     69.96% # Class of committed instruction. (Count)
system.cpu.commitStats0.committedInstType::SimdMultAcc            0      0.00%     69.96% # Class of committed instruction. (Count)
system.cpu.commitStats0.committedInstType::SimdMatMultAcc            0      0.00%     69.96% # Class of committed instruction. (Count)
system.cpu.commitStats0.committedInstType::SimdShift            0      0.00%     69.96% # Class of committed instruction. (Count)
system.cpu.commitStats0.committedInstType::SimdShiftAcc            0      0.00%     69.96% # Class of committed instruction. (Count)
system.cpu.commitStats0.committedInstType::SimdDiv            0      0.00%     69.96% # Class of committed instruction. (Count)
system.cpu.commitStats0.committedInstType::SimdSqrt            0      0.00%     69.96% # Class of committed instruction. (Count)
system.cpu.commitStats0.committedInstType::SimdFloatAdd            0      0.00%     69.96% # Class of committed instruction. (Count)
system.cpu.commitStats0.committedInstType::SimdFloatAlu            0      0.00%     69.96% # Class of committed instruction. (Count)
system.cpu.commitStats0.committedInstType::SimdFloatCmp            0      0.00%     69.96% # Class of committed instruction. (Count)
system.cpu.commitStats0.committedInstType::SimdFloatCvt            0      0.00%     69.96% # Class of committed instruction. (Count)
system.cpu.commitStats0.committedInstType::SimdFloatDiv            0      0.00%     69.96% # Class of committed instruction. (Count)
system.cpu.commitStats0.committedInstType::SimdFloatMisc            0      0.00%     69.96% # Class of committed instruction. (Count)
system.cpu.commitStats0.committedInstType::SimdFloatMult            0      0.00%     69.96% # Class of committed instruction. (Count)
system.cpu.commitStats0.committedInstType::SimdFloatMultAcc            0      0.00%     69.96% # Class of committed instruction. (Count)
system.cpu.commitStats0.committedInstType::SimdFloatMatMultAcc            0      0.00%     69.96% # Class of committed instruction. (Count)
system.cpu.commitStats0.committedInstType::SimdFloatSqrt            0      0.00%     69.96% # Class of committed instruction. (Count)
system.cpu.commitStats0.committedInstType::SimdReduceAdd            0      0.00%     69.96% # Class of committed instruction. (Count)
system.cpu.commitStats0.committedInstType::SimdReduceAlu            0      0.00%     69.96% # Class of committed instruction. (Count)
system.cpu.commitStats0.committedInstType::SimdReduceCmp            0      0.00%     69.96% # Class of committed instruction. (Count)
system.cpu.commitStats0.committedInstType::SimdFloatReduceAdd            0      0.00%     69.96% # Class of committed instruction. (Count)
system.cpu.commitStats0.committedInstType::SimdFloatReduceCmp            0      0.00%     69.96% # Class of committed instruction. (Count)
system.cpu.commitStats0.committedInstType::SimdAes            0      0.00%     69.96% # Class of committed instruction. (Count)
system.cpu.commitStats0.committedInstType::SimdAesMix            0      0.00%     69.96% # Class of committed instruction. (Count)
system.cpu.commitStats0.committedInstType::SimdSha1Hash            0      0.00%     69.96% # Class of committed instruction. (Count)
system.cpu.commitStats0.committedInstType::SimdSha1Hash2            0      0.00%     69.96% # Class of committed instruction. (Count)
system.cpu.commitStats0.committedInstType::SimdSha256Hash            0      0.00%     69.96% # Class of committed instruction. (Count)
system.cpu.commitStats0.committedInstType::SimdSha256Hash2            0      0.00%     69.96% # Class of committed instruction. (Count)
system.cpu.commitStats0.committedInstType::SimdShaSigma2            0      0.00%     69.96% # Class of committed instruction. (Count)
system.cpu.commitStats0.committedInstType::SimdShaSigma3            0      0.00%     69.96% # Class of committed instruction. (Count)
system.cpu.commitStats0.committedInstType::SimdPredAlu            0      0.00%     69.96% # Class of committed instruction. (Count)
system.cpu.commitStats0.committedInstType::Matrix            0      0.00%     69.96% # Class of committed instruction. (Count)
system.cpu.commitStats0.committedInstType::MatrixMov            0      0.00%     69.96% # Class of committed instruction. (Count)
system.cpu.commitStats0.committedInstType::MatrixOP            0      0.00%     69.96% # Class of committed instruction. (Count)
system.cpu.commitStats0.committedInstType::MemRead    832471158     19.56%     89.53% # Class of committed instruction. (Count)
system.cpu.commitStats0.committedInstType::MemWrite    445690479     10.47%    100.00% # Class of committed instruction. (Count)
system.cpu.commitStats0.committedInstType::FloatMemRead          922      0.00%    100.00% # Class of committed instruction. (Count)
system.cpu.commitStats0.committedInstType::FloatMemWrite          160      0.00%    100.00% # Class of committed instruction. (Count)
system.cpu.commitStats0.committedInstType::IprAccess            0      0.00%    100.00% # Class of committed instruction. (Count)
system.cpu.commitStats0.committedInstType::InstPrefetch            0      0.00%    100.00% # Class of committed instruction. (Count)
system.cpu.commitStats0.committedInstType::VectorUnitStrideLoad            0      0.00%    100.00% # Class of committed instruction. (Count)
system.cpu.commitStats0.committedInstType::VectorUnitStrideStore            0      0.00%    100.00% # Class of committed instruction. (Count)
system.cpu.commitStats0.committedInstType::VectorUnitStrideMaskLoad            0      0.00%    100.00% # Class of committed instruction. (Count)
system.cpu.commitStats0.committedInstType::VectorUnitStrideMaskStore            0      0.00%    100.00% # Class of committed instruction. (Count)
system.cpu.commitStats0.committedInstType::VectorStridedLoad            0      0.00%    100.00% # Class of committed instruction. (Count)
system.cpu.commitStats0.committedInstType::VectorStridedStore            0      0.00%    100.00% # Class of committed instruction. (Count)
system.cpu.commitStats0.committedInstType::VectorIndexedLoad            0      0.00%    100.00% # Class of committed instruction. (Count)
system.cpu.commitStats0.committedInstType::VectorIndexedStore            0      0.00%    100.00% # Class of committed instruction. (Count)
system.cpu.commitStats0.committedInstType::VectorUnitStrideFaultOnlyFirstLoad            0      0.00%    100.00% # Class of committed instruction. (Count)
system.cpu.commitStats0.committedInstType::VectorWholeRegisterLoad            0      0.00%    100.00% # Class of committed instruction. (Count)
system.cpu.commitStats0.committedInstType::VectorWholeRegisterStore            0      0.00%    100.00% # Class of committed instruction. (Count)
system.cpu.commitStats0.committedInstType::VectorIntegerArith            0      0.00%    100.00% # Class of committed instruction. (Count)
system.cpu.commitStats0.committedInstType::VectorFloatArith            0      0.00%    100.00% # Class of committed instruction. (Count)
system.cpu.commitStats0.committedInstType::VectorFloatConvert            0      0.00%    100.00% # Class of committed instruction. (Count)
system.cpu.commitStats0.committedInstType::VectorIntegerReduce            0      0.00%    100.00% # Class of committed instruction. (Count)
system.cpu.commitStats0.committedInstType::VectorFloatReduce            0      0.00%    100.00% # Class of committed instruction. (Count)
system.cpu.commitStats0.committedInstType::VectorMisc            0      0.00%    100.00% # Class of committed instruction. (Count)
system.cpu.commitStats0.committedInstType::VectorIntegerExtension            0      0.00%    100.00% # Class of committed instruction. (Count)
system.cpu.commitStats0.committedInstType::VectorConfig            0      0.00%    100.00% # Class of committed instruction. (Count)
system.cpu.commitStats0.committedInstType::total   4255247018                       # Class of committed instruction. (Count)
system.cpu.commitStats0.committedControl::IsControl    339533767                       # Class of control type instructions committed (Count)
system.cpu.commitStats0.committedControl::IsDirectControl    337552598                       # Class of control type instructions committed (Count)
system.cpu.commitStats0.committedControl::IsIndirectControl      1981169                       # Class of control type instructions committed (Count)
system.cpu.commitStats0.committedControl::IsCondControl    327130090                       # Class of control type instructions committed (Count)
system.cpu.commitStats0.committedControl::IsUncondControl     12403677                       # Class of control type instructions committed (Count)
system.cpu.commitStats0.committedControl::IsCall      1980150                       # Class of control type instructions committed (Count)
system.cpu.commitStats0.committedControl::IsReturn      1980145                       # Class of control type instructions committed (Count)
system.cpu.dcache.demandHits::cpu.data      698025681                       # number of demand (read+write) hits (Count)
system.cpu.dcache.demandHits::total         698025681                       # number of demand (read+write) hits (Count)
system.cpu.dcache.overallHits::cpu.data     698025681                       # number of overall hits (Count)
system.cpu.dcache.overallHits::total        698025681                       # number of overall hits (Count)
system.cpu.dcache.demandMisses::cpu.data     20159443                       # number of demand (read+write) misses (Count)
system.cpu.dcache.demandMisses::total        20159443                       # number of demand (read+write) misses (Count)
system.cpu.dcache.overallMisses::cpu.data     20159443                       # number of overall misses (Count)
system.cpu.dcache.overallMisses::total       20159443                       # number of overall misses (Count)
system.cpu.dcache.demandMissLatency::cpu.data 1936277251999                       # number of demand (read+write) miss ticks (Tick)
system.cpu.dcache.demandMissLatency::total 1936277251999                       # number of demand (read+write) miss ticks (Tick)
system.cpu.dcache.overallMissLatency::cpu.data 1936277251999                       # number of overall miss ticks (Tick)
system.cpu.dcache.overallMissLatency::total 1936277251999                       # number of overall miss ticks (Tick)
system.cpu.dcache.demandAccesses::cpu.data    718185124                       # number of demand (read+write) accesses (Count)
system.cpu.dcache.demandAccesses::total     718185124                       # number of demand (read+write) accesses (Count)
system.cpu.dcache.overallAccesses::cpu.data    718185124                       # number of overall (read+write) accesses (Count)
system.cpu.dcache.overallAccesses::total    718185124                       # number of overall (read+write) accesses (Count)
system.cpu.dcache.demandMissRate::cpu.data     0.028070                       # miss rate for demand accesses (Ratio)
system.cpu.dcache.demandMissRate::total      0.028070                       # miss rate for demand accesses (Ratio)
system.cpu.dcache.overallMissRate::cpu.data     0.028070                       # miss rate for overall accesses (Ratio)
system.cpu.dcache.overallMissRate::total     0.028070                       # miss rate for overall accesses (Ratio)
system.cpu.dcache.demandAvgMissLatency::cpu.data 96048.152322                       # average overall miss latency in ticks ((Tick/Count))
system.cpu.dcache.demandAvgMissLatency::total 96048.152322                       # average overall miss latency in ticks ((Tick/Count))
system.cpu.dcache.overallAvgMissLatency::cpu.data 96048.152322                       # average overall miss latency ((Tick/Count))
system.cpu.dcache.overallAvgMissLatency::total 96048.152322                       # average overall miss latency ((Tick/Count))
system.cpu.dcache.blockedCycles::no_mshrs          281                       # number of cycles access was blocked (Cycle)
system.cpu.dcache.blockedCycles::no_targets            1                       # number of cycles access was blocked (Cycle)
system.cpu.dcache.blockedCauses::no_mshrs            8                       # number of times access was blocked (Count)
system.cpu.dcache.blockedCauses::no_targets            1                       # number of times access was blocked (Count)
system.cpu.dcache.avgBlocked::no_mshrs      35.125000                       # average number of cycles each access was blocked ((Cycle/Count))
system.cpu.dcache.avgBlocked::no_targets            1                       # average number of cycles each access was blocked ((Cycle/Count))
system.cpu.dcache.writebacks::writebacks       199251                       # number of writebacks (Count)
system.cpu.dcache.writebacks::total            199251                       # number of writebacks (Count)
system.cpu.dcache.demandMshrHits::cpu.data       998880                       # number of demand (read+write) MSHR hits (Count)
system.cpu.dcache.demandMshrHits::total        998880                       # number of demand (read+write) MSHR hits (Count)
system.cpu.dcache.overallMshrHits::cpu.data       998880                       # number of overall MSHR hits (Count)
system.cpu.dcache.overallMshrHits::total       998880                       # number of overall MSHR hits (Count)
system.cpu.dcache.demandMshrMisses::cpu.data     19160563                       # number of demand (read+write) MSHR misses (Count)
system.cpu.dcache.demandMshrMisses::total     19160563                       # number of demand (read+write) MSHR misses (Count)
system.cpu.dcache.overallMshrMisses::cpu.data     19160563                       # number of overall MSHR misses (Count)
system.cpu.dcache.overallMshrMisses::total     19160563                       # number of overall MSHR misses (Count)
system.cpu.dcache.demandMshrMissLatency::cpu.data 1882972449000                       # number of demand (read+write) MSHR miss ticks (Tick)
system.cpu.dcache.demandMshrMissLatency::total 1882972449000                       # number of demand (read+write) MSHR miss ticks (Tick)
system.cpu.dcache.overallMshrMissLatency::cpu.data 1882972449000                       # number of overall MSHR miss ticks (Tick)
system.cpu.dcache.overallMshrMissLatency::total 1882972449000                       # number of overall MSHR miss ticks (Tick)
system.cpu.dcache.demandMshrMissRate::cpu.data     0.026679                       # mshr miss ratio for demand accesses (Ratio)
system.cpu.dcache.demandMshrMissRate::total     0.026679                       # mshr miss ratio for demand accesses (Ratio)
system.cpu.dcache.overallMshrMissRate::cpu.data     0.026679                       # mshr miss ratio for overall accesses (Ratio)
system.cpu.dcache.overallMshrMissRate::total     0.026679                       # mshr miss ratio for overall accesses (Ratio)
system.cpu.dcache.demandAvgMshrMissLatency::cpu.data 98273.336175                       # average overall mshr miss latency ((Tick/Count))
system.cpu.dcache.demandAvgMshrMissLatency::total 98273.336175                       # average overall mshr miss latency ((Tick/Count))
system.cpu.dcache.overallAvgMshrMissLatency::cpu.data 98273.336175                       # average overall mshr miss latency ((Tick/Count))
system.cpu.dcache.overallAvgMshrMissLatency::total 98273.336175                       # average overall mshr miss latency ((Tick/Count))
system.cpu.dcache.replacements                9026599                       # number of replacements (Count)
system.cpu.dcache.CleanInvalidReq.missLatency::cpu.data 547179335000                       # number of CleanInvalidReq miss ticks (Tick)
system.cpu.dcache.CleanInvalidReq.missLatency::total 547179335000                       # number of CleanInvalidReq miss ticks (Tick)
system.cpu.dcache.CleanInvalidReq.avgMissLatency::cpu.data          inf                       # average CleanInvalidReq miss latency ((Tick/Count))
system.cpu.dcache.CleanInvalidReq.avgMissLatency::total          inf                       # average CleanInvalidReq miss latency ((Tick/Count))
system.cpu.dcache.CleanInvalidReq.mshrMisses::cpu.data     18857124                       # number of CleanInvalidReq MSHR misses (Count)
system.cpu.dcache.CleanInvalidReq.mshrMisses::total     18857124                       # number of CleanInvalidReq MSHR misses (Count)
system.cpu.dcache.CleanInvalidReq.mshrMissLatency::cpu.data 980571023000                       # number of CleanInvalidReq MSHR miss ticks (Tick)
system.cpu.dcache.CleanInvalidReq.mshrMissLatency::total 980571023000                       # number of CleanInvalidReq MSHR miss ticks (Tick)
system.cpu.dcache.CleanInvalidReq.mshrMissRate::cpu.data          inf                       # mshr miss rate for CleanInvalidReq accesses (Ratio)
system.cpu.dcache.CleanInvalidReq.mshrMissRate::total          inf                       # mshr miss rate for CleanInvalidReq accesses (Ratio)
system.cpu.dcache.CleanInvalidReq.avgMshrMissLatency::cpu.data 52000.030492                       # average CleanInvalidReq mshr miss latency ((Tick/Count))
system.cpu.dcache.CleanInvalidReq.avgMshrMissLatency::total 52000.030492                       # average CleanInvalidReq mshr miss latency ((Tick/Count))
system.cpu.dcache.ReadReq.hits::cpu.data    271194393                       # number of ReadReq hits (Count)
system.cpu.dcache.ReadReq.hits::total       271194393                       # number of ReadReq hits (Count)
system.cpu.dcache.ReadReq.misses::cpu.data     20157176                       # number of ReadReq misses (Count)
system.cpu.dcache.ReadReq.misses::total      20157176                       # number of ReadReq misses (Count)
system.cpu.dcache.ReadReq.missLatency::cpu.data 1936056502000                       # number of ReadReq miss ticks (Tick)
system.cpu.dcache.ReadReq.missLatency::total 1936056502000                       # number of ReadReq miss ticks (Tick)
system.cpu.dcache.ReadReq.accesses::cpu.data    291351569                       # number of ReadReq accesses(hits+misses) (Count)
system.cpu.dcache.ReadReq.accesses::total    291351569                       # number of ReadReq accesses(hits+misses) (Count)
system.cpu.dcache.ReadReq.missRate::cpu.data     0.069185                       # miss rate for ReadReq accesses (Ratio)
system.cpu.dcache.ReadReq.missRate::total     0.069185                       # miss rate for ReadReq accesses (Ratio)
system.cpu.dcache.ReadReq.avgMissLatency::cpu.data 96048.003054                       # average ReadReq miss latency ((Tick/Count))
system.cpu.dcache.ReadReq.avgMissLatency::total 96048.003054                       # average ReadReq miss latency ((Tick/Count))
system.cpu.dcache.ReadReq.mshrHits::cpu.data       998878                       # number of ReadReq MSHR hits (Count)
system.cpu.dcache.ReadReq.mshrHits::total       998878                       # number of ReadReq MSHR hits (Count)
system.cpu.dcache.ReadReq.mshrMisses::cpu.data     19158298                       # number of ReadReq MSHR misses (Count)
system.cpu.dcache.ReadReq.mshrMisses::total     19158298                       # number of ReadReq MSHR misses (Count)
system.cpu.dcache.ReadReq.mshrMissLatency::cpu.data 1882756403000                       # number of ReadReq MSHR miss ticks (Tick)
system.cpu.dcache.ReadReq.mshrMissLatency::total 1882756403000                       # number of ReadReq MSHR miss ticks (Tick)
system.cpu.dcache.ReadReq.mshrMissRate::cpu.data     0.065757                       # mshr miss rate for ReadReq accesses (Ratio)
system.cpu.dcache.ReadReq.mshrMissRate::total     0.065757                       # mshr miss rate for ReadReq accesses (Ratio)
system.cpu.dcache.ReadReq.avgMshrMissLatency::cpu.data 98273.677704                       # average ReadReq mshr miss latency ((Tick/Count))
system.cpu.dcache.ReadReq.avgMshrMissLatency::total 98273.677704                       # average ReadReq mshr miss latency ((Tick/Count))
system.cpu.dcache.WriteReq.hits::cpu.data    426831288                       # number of WriteReq hits (Count)
system.cpu.dcache.WriteReq.hits::total      426831288                       # number of WriteReq hits (Count)
system.cpu.dcache.WriteReq.misses::cpu.data         2267                       # number of WriteReq misses (Count)
system.cpu.dcache.WriteReq.misses::total         2267                       # number of WriteReq misses (Count)
system.cpu.dcache.WriteReq.missLatency::cpu.data    220749999                       # number of WriteReq miss ticks (Tick)
system.cpu.dcache.WriteReq.missLatency::total    220749999                       # number of WriteReq miss ticks (Tick)
system.cpu.dcache.WriteReq.accesses::cpu.data    426833555                       # number of WriteReq accesses(hits+misses) (Count)
system.cpu.dcache.WriteReq.accesses::total    426833555                       # number of WriteReq accesses(hits+misses) (Count)
system.cpu.dcache.WriteReq.missRate::cpu.data     0.000005                       # miss rate for WriteReq accesses (Ratio)
system.cpu.dcache.WriteReq.missRate::total     0.000005                       # miss rate for WriteReq accesses (Ratio)
system.cpu.dcache.WriteReq.avgMissLatency::cpu.data 97375.385532                       # average WriteReq miss latency ((Tick/Count))
system.cpu.dcache.WriteReq.avgMissLatency::total 97375.385532                       # average WriteReq miss latency ((Tick/Count))
system.cpu.dcache.WriteReq.mshrHits::cpu.data            2                       # number of WriteReq MSHR hits (Count)
system.cpu.dcache.WriteReq.mshrHits::total            2                       # number of WriteReq MSHR hits (Count)
system.cpu.dcache.WriteReq.mshrMisses::cpu.data         2265                       # number of WriteReq MSHR misses (Count)
system.cpu.dcache.WriteReq.mshrMisses::total         2265                       # number of WriteReq MSHR misses (Count)
system.cpu.dcache.WriteReq.mshrMissLatency::cpu.data    216046000                       # number of WriteReq MSHR miss ticks (Tick)
system.cpu.dcache.WriteReq.mshrMissLatency::total    216046000                       # number of WriteReq MSHR miss ticks (Tick)
system.cpu.dcache.WriteReq.mshrMissRate::cpu.data     0.000005                       # mshr miss rate for WriteReq accesses (Ratio)
system.cpu.dcache.WriteReq.mshrMissRate::total     0.000005                       # mshr miss rate for WriteReq accesses (Ratio)
system.cpu.dcache.WriteReq.avgMshrMissLatency::cpu.data 95384.547461                       # average WriteReq mshr miss latency ((Tick/Count))
system.cpu.dcache.WriteReq.avgMshrMissLatency::total 95384.547461                       # average WriteReq mshr miss latency ((Tick/Count))
system.cpu.dcache.power_state.pwrStateResidencyTicks::UNDEFINED 5714296912000                       # Cumulative time (in ticks) in various power states (Tick)
system.cpu.dcache.tags.tagsInUse           965.960213                       # Average ticks per tags in use ((Tick/Count))
system.cpu.dcache.tags.totalRefs            727319184                       # Total number of references to valid blocks. (Count)
system.cpu.dcache.tags.sampledRefs           19160563                       # Sample count of references to valid blocks. (Count)
system.cpu.dcache.tags.avgRefs              37.959176                       # Average number of references to valid blocks. ((Count/Count))
system.cpu.dcache.tags.warmupTick              222000                       # The tick when the warmup percentage was hit. (Tick)
system.cpu.dcache.tags.occupancies::cpu.data   965.960213                       # Average occupied blocks per tick, per requestor ((Count/Tick))
system.cpu.dcache.tags.avgOccs::cpu.data     0.943321                       # Average percentage of cache occupancy ((Ratio/Tick))
system.cpu.dcache.tags.avgOccs::total        0.943321                       # Average percentage of cache occupancy ((Ratio/Tick))
system.cpu.dcache.tags.occupanciesTaskId::1024         1024                       # Occupied blocks per task id (Count)
system.cpu.dcache.tags.ageTaskId_1024::0           47                       # Occupied blocks per task id, per block age (Count)
system.cpu.dcache.tags.ageTaskId_1024::1          101                       # Occupied blocks per task id, per block age (Count)
system.cpu.dcache.tags.ageTaskId_1024::4          876                       # Occupied blocks per task id, per block age (Count)
system.cpu.dcache.tags.ratioOccsTaskId::1024            1                       # Ratio of occupied blocks and all blocks, per task id (Ratio)
system.cpu.dcache.tags.tagAccesses         1493245059                       # Number of tag accesses (Count)
system.cpu.dcache.tags.dataAccesses        1493245059                       # Number of data accesses (Count)
system.cpu.dcache.tags.power_state.pwrStateResidencyTicks::UNDEFINED 5714296912000                       # Cumulative time (in ticks) in various power states (Tick)
system.cpu.decode.idleCycles                296032132                       # Number of cycles decode is idle (Cycle)
system.cpu.decode.blockedCycles            4512670161                       # Number of cycles decode is blocked (Cycle)
system.cpu.decode.runCycles                 493091363                       # Number of cycles decode is running (Cycle)
system.cpu.decode.unblockCycles             391149391                       # Number of cycles decode is unblocking (Cycle)
system.cpu.decode.squashCycles               21329680                       # Number of cycles decode is squashing (Cycle)
system.cpu.decode.branchResolved            419184929                       # Number of times decode resolved a branch (Count)
system.cpu.decode.branchMispred                   512                       # Number of times decode detected a branch misprediction (Count)
system.cpu.decode.decodedInsts             6263995613                       # Number of instructions handled by decode (Count)
system.cpu.decode.squashedInsts                  2204                       # Number of squashed instructions handled by decode (Count)
system.cpu.executeStats0.numInsts          4984873099                       # Number of executed instructions (Count)
system.cpu.executeStats0.numNop                     0                       # Number of nop insts executed (Count)
system.cpu.executeStats0.numBranches        366821090                       # Number of branches executed (Count)
system.cpu.executeStats0.numLoadInsts       916216123                       # Number of load instructions executed (Count)
system.cpu.executeStats0.numStoreInsts      466991177                       # Number of stores executed (Count)
system.cpu.executeStats0.instRate            0.872351                       # Inst execution rate ((Count/Cycle))
system.cpu.executeStats0.numCCRegReads     1920737821                       # Number of times the CC registers were read (Count)
system.cpu.executeStats0.numCCRegWrites    1707350065                       # Number of times the CC registers were written (Count)
system.cpu.executeStats0.numFpRegReads          17026                       # Number of times the floating registers were read (Count)
system.cpu.executeStats0.numFpRegWrites          8123                       # Number of times the floating registers were written (Count)
system.cpu.executeStats0.numIntRegReads    5137852678                       # Number of times the integer registers were read (Count)
system.cpu.executeStats0.numIntRegWrites   3748187094                       # Number of times the integer registers were written (Count)
system.cpu.executeStats0.numMemRefs        1383207300                       # Number of memory refs (Count)
system.cpu.executeStats0.numMiscRegReads   2282082359                       # Number of times the Misc registers were read (Count)
system.cpu.executeStats0.numVecAluAccesses            0                       # Number of vector alu accesses (Count)
system.cpu.executeStats0.numDiscardedOps            0                       # Number of ops (including micro ops) which were discarded before commit (Count)
system.cpu.fetch.predictedBranches          468870221                       # Number of branches that fetch has predicted taken (Count)
system.cpu.fetch.cycles                    5288802155                       # Number of cycles fetch has run and was not squashing or blocked (Cycle)
system.cpu.fetch.squashCycles                42660296                       # Number of cycles fetch has spent squashing (Cycle)
system.cpu.fetch.miscStallCycles                   22                       # Number of cycles fetch has spent waiting on interrupts, or bad addresses, or out of MSHRs (Cycle)
system.cpu.fetch.pendingTrapStallCycles           110                       # Number of stall cycles due to pending traps (Cycle)
system.cpu.fetch.icacheWaitRetryStallCycles           17                       # Number of stall cycles due to full MSHR (Cycle)
system.cpu.fetch.cacheLines                 403762221                       # Number of cache lines fetched (Count)
system.cpu.fetch.icacheSquashes                115264                       # Number of outstanding Icache misses that were squashed (Count)
system.cpu.fetch.nisnDist::samples         5714272727                       # Number of instructions fetched each cycle (Total) (Count)
system.cpu.fetch.nisnDist::mean              1.214486                       # Number of instructions fetched each cycle (Total) (Count)
system.cpu.fetch.nisnDist::stdev             2.576610                       # Number of instructions fetched each cycle (Total) (Count)
system.cpu.fetch.nisnDist::underflows               0      0.00%      0.00% # Number of instructions fetched each cycle (Total) (Count)
system.cpu.fetch.nisnDist::0               4433251630     77.58%     77.58% # Number of instructions fetched each cycle (Total) (Count)
system.cpu.fetch.nisnDist::1                 10172401      0.18%     77.76% # Number of instructions fetched each cycle (Total) (Count)
system.cpu.fetch.nisnDist::2                277927360      4.86%     82.62% # Number of instructions fetched each cycle (Total) (Count)
system.cpu.fetch.nisnDist::3                200932274      3.52%     86.14% # Number of instructions fetched each cycle (Total) (Count)
[...]
system.mem_ctrl.dram.numReads::cpu.data      18859413                       # Number of read requests responded to by this memory (Count)
system.mem_ctrl.dram.numReads::total         18859985                       # Number of read requests responded to by this memory (Count)
system.mem_ctrl.dram.numWrites::writebacks          259                       # Number of write requests responded to by this memory (Count)
system.mem_ctrl.dram.numWrites::total             259                       # Number of write requests responded to by this memory (Count)
system.mem_ctrl.dram.bwRead::cpu.inst            6406                       # Total read bandwidth from this memory ((Byte/Second))
system.mem_ctrl.dram.bwRead::cpu.data       211225012                       # Total read bandwidth from this memory ((Byte/Second))
system.mem_ctrl.dram.bwRead::total          211231418                       # Total read bandwidth from this memory ((Byte/Second))
system.mem_ctrl.dram.bwInstRead::cpu.inst         6406                       # Instruction read bandwidth from this memory ((Byte/Second))
system.mem_ctrl.dram.bwInstRead::total           6406                       # Instruction read bandwidth from this memory ((Byte/Second))
system.mem_ctrl.dram.bwWrite::writebacks         2901                       # Write bandwidth from this memory ((Byte/Second))
system.mem_ctrl.dram.bwWrite::total              2901                       # Write bandwidth from this memory ((Byte/Second))
system.mem_ctrl.dram.bwTotal::writebacks         2901                       # Total bandwidth to/from this memory ((Byte/Second))
system.mem_ctrl.dram.bwTotal::cpu.inst           6406                       # Total bandwidth to/from this memory ((Byte/Second))
system.mem_ctrl.dram.bwTotal::cpu.data      211225012                       # Total bandwidth to/from this memory ((Byte/Second))
system.mem_ctrl.dram.bwTotal::total         211234319                       # Total bandwidth to/from this memory ((Byte/Second))
system.mem_ctrl.dram.readBursts              17607239                       # Number of DRAM read bursts (Count)
system.mem_ctrl.dram.writeBursts                  237                       # Number of DRAM write bursts (Count)
system.mem_ctrl.dram.perBankRdBursts::0       1055159                       # Per bank write bursts (Count)
system.mem_ctrl.dram.perBankRdBursts::1       1055112                       # Per bank write bursts (Count)
system.mem_ctrl.dram.perBankRdBursts::2       1055119                       # Per bank write bursts (Count)
system.mem_ctrl.dram.perBankRdBursts::3       1055088                       # Per bank write bursts (Count)
system.mem_ctrl.dram.perBankRdBursts::4       1055072                       # Per bank write bursts (Count)
system.mem_ctrl.dram.perBankRdBursts::5       1055085                       # Per bank write bursts (Count)
system.mem_ctrl.dram.perBankRdBursts::6       2373857                       # Per bank write bursts (Count)
system.mem_ctrl.dram.perBankRdBursts::7        461725                       # Per bank write bursts (Count)
system.mem_ctrl.dram.perBankRdBursts::8       1055117                       # Per bank write bursts (Count)
system.mem_ctrl.dram.perBankRdBursts::9       1055129                       # Per bank write bursts (Count)
system.mem_ctrl.dram.perBankRdBursts::10      1055175                       # Per bank write bursts (Count)
system.mem_ctrl.dram.perBankRdBursts::11      1055155                       # Per bank write bursts (Count)
system.mem_ctrl.dram.perBankRdBursts::12      1055098                       # Per bank write bursts (Count)
system.mem_ctrl.dram.perBankRdBursts::13      1055125                       # Per bank write bursts (Count)
system.mem_ctrl.dram.perBankRdBursts::14      1055100                       # Per bank write bursts (Count)
system.mem_ctrl.dram.perBankRdBursts::15      1055123                       # Per bank write bursts (Count)
system.mem_ctrl.dram.perBankWrBursts::0            16                       # Per bank write bursts (Count)
system.mem_ctrl.dram.perBankWrBursts::1            16                       # Per bank write bursts (Count)
system.mem_ctrl.dram.perBankWrBursts::2            16                       # Per bank write bursts (Count)
system.mem_ctrl.dram.perBankWrBursts::3            16                       # Per bank write bursts (Count)
system.mem_ctrl.dram.perBankWrBursts::4            16                       # Per bank write bursts (Count)
system.mem_ctrl.dram.perBankWrBursts::5            16                       # Per bank write bursts (Count)
system.mem_ctrl.dram.perBankWrBursts::6             6                       # Per bank write bursts (Count)
system.mem_ctrl.dram.perBankWrBursts::7             7                       # Per bank write bursts (Count)
system.mem_ctrl.dram.perBankWrBursts::8            16                       # Per bank write bursts (Count)
system.mem_ctrl.dram.perBankWrBursts::9            16                       # Per bank write bursts (Count)
system.mem_ctrl.dram.perBankWrBursts::10           16                       # Per bank write bursts (Count)
system.mem_ctrl.dram.perBankWrBursts::11           16                       # Per bank write bursts (Count)
system.mem_ctrl.dram.perBankWrBursts::12           16                       # Per bank write bursts (Count)
system.mem_ctrl.dram.perBankWrBursts::13           16                       # Per bank write bursts (Count)
system.mem_ctrl.dram.perBankWrBursts::14           16                       # Per bank write bursts (Count)
system.mem_ctrl.dram.perBankWrBursts::15           16                       # Per bank write bursts (Count)
system.mem_ctrl.dram.totQLat             156656146500                       # Total ticks spent queuing (Tick)
system.mem_ctrl.dram.totBusLat            88036195000                       # Total ticks spent in databus transfers (Tick)
system.mem_ctrl.dram.totMemAccLat        486791877750                       # Total ticks spent from burst creation until serviced by the DRAM (Tick)
system.mem_ctrl.dram.avgQLat                  8897.26                       # Average queueing delay per DRAM burst ((Tick/Count))
system.mem_ctrl.dram.avgBusLat                5000.00                       # Average bus latency per DRAM burst ((Tick/Count))
system.mem_ctrl.dram.avgMemAccLat            27647.26                       # Average memory access latency per DRAM burst ((Tick/Count))
system.mem_ctrl.dram.readRowHits             11451088                       # Number of row buffer hits during reads (Count)
system.mem_ctrl.dram.writeRowHits                 219                       # Number of row buffer hits during writes (Count)
system.mem_ctrl.dram.readRowHitRate             65.04                       # Row buffer hit rate for reads (Ratio)
system.mem_ctrl.dram.writeRowHitRate            92.41                       # Row buffer hit rate for writes (Ratio)
system.mem_ctrl.dram.bytesPerActivate::samples      6156162                       # Bytes accessed per row activation (Byte)
system.mem_ctrl.dram.bytesPerActivate::mean   183.048646                       # Bytes accessed per row activation (Byte)
system.mem_ctrl.dram.bytesPerActivate::gmean   158.465820                       # Bytes accessed per row activation (Byte)
system.mem_ctrl.dram.bytesPerActivate::stdev   114.479537                       # Bytes accessed per row activation (Byte)
system.mem_ctrl.dram.bytesPerActivate::0-127       902982     14.67%     14.67% # Bytes accessed per row activation (Byte)
system.mem_ctrl.dram.bytesPerActivate::128-255      3434253     55.79%     70.45% # Bytes accessed per row activation (Byte)
system.mem_ctrl.dram.bytesPerActivate::256-383      1653416     26.86%     97.31% # Bytes accessed per row activation (Byte)
system.mem_ctrl.dram.bytesPerActivate::384-511        17719      0.29%     97.60% # Bytes accessed per row activation (Byte)
system.mem_ctrl.dram.bytesPerActivate::512-639        24078      0.39%     97.99% # Bytes accessed per row activation (Byte)
system.mem_ctrl.dram.bytesPerActivate::640-767        24051      0.39%     98.38% # Bytes accessed per row activation (Byte)
system.mem_ctrl.dram.bytesPerActivate::768-895        99548      1.62%    100.00% # Bytes accessed per row activation (Byte)
system.mem_ctrl.dram.bytesPerActivate::896-1023            6      0.00%    100.00% # Bytes accessed per row activation (Byte)
system.mem_ctrl.dram.bytesPerActivate::1024-1151          109      0.00%    100.00% # Bytes accessed per row activation (Byte)
system.mem_ctrl.dram.bytesPerActivate::total      6156162                       # Bytes accessed per row activation (Byte)
system.mem_ctrl.dram.bytesRead             1126863296                       # Total bytes read (Byte)
system.mem_ctrl.dram.bytesWritten               15168                       # Total bytes written (Byte)
system.mem_ctrl.dram.avgRdBW               197.200690                       # Average DRAM read bandwidth in MiBytes/s ((Byte/Second))
system.mem_ctrl.dram.avgWrBW                 0.002654                       # Average DRAM write bandwidth in MiBytes/s ((Byte/Second))
system.mem_ctrl.dram.peakBW                  12800.00                       # Theoretical peak bandwidth in MiByte/s ((Byte/Second))
system.mem_ctrl.dram.busUtil                     1.54                       # Data bus utilization in percentage (Ratio)
system.mem_ctrl.dram.busUtilRead                 1.54                       # Data bus utilization in percentage for reads (Ratio)
system.mem_ctrl.dram.busUtilWrite                0.00                       # Data bus utilization in percentage for writes (Ratio)
system.mem_ctrl.dram.pageHitRate                65.04                       # Row buffer hit rate, read and write combined (Ratio)
system.mem_ctrl.dram.power_state.pwrStateResidencyTicks::UNDEFINED 5714296912000                       # Cumulative time (in ticks) in various power states (Tick)
system.mem_ctrl.dram.rank0.actEnergy      21812999880                       # Energy for activate commands per rank (pJ) (Joule)
system.mem_ctrl.dram.rank0.preEnergy      11593869210                       # Energy for precharge commands per rank (pJ) (Joule)
system.mem_ctrl.dram.rank0.readEnergy     65446789380                       # Energy for read commands per rank (pJ) (Joule)
system.mem_ctrl.dram.rank0.writeEnergy         568980                       # Energy for write commands per rank (pJ) (Joule)
system.mem_ctrl.dram.rank0.refreshEnergy 451081222800.000061                       # Energy for refresh commands per rank (pJ) (Joule)
system.mem_ctrl.dram.rank0.actBackEnergy 1875667673370                       # Energy for active background per rank (pJ) (Joule)
system.mem_ctrl.dram.rank0.preBackEnergy 614780394720                       # Energy for precharge background per rank (pJ) (Joule)
system.mem_ctrl.dram.rank0.actPowerDownEnergy            0                       # Energy for active power-down per rank (pJ) (Joule)
system.mem_ctrl.dram.rank0.prePowerDownEnergy            0                       # Energy for precharge power-down per rank (pJ) (Joule)
system.mem_ctrl.dram.rank0.selfRefreshEnergy            0                       # Energy for self refresh per rank (pJ) (Joule)
system.mem_ctrl.dram.rank0.totalEnergy   3040383518340                       # Total energy per rank (pJ) (Joule)
system.mem_ctrl.dram.rank0.averagePower    532.066073                       # Core power per rank (mW) (Watt)
system.mem_ctrl.dram.rank0.totalIdleTime            0                       # Total Idle time Per DRAM Rank (Tick)
system.mem_ctrl.dram.rank0.pwrStateTime::IDLE 1583046714000                       # Time in different power states (Tick)
system.mem_ctrl.dram.rank0.pwrStateTime::REF 190812700000                       # Time in different power states (Tick)
system.mem_ctrl.dram.rank0.pwrStateTime::SREF            0                       # Time in different power states (Tick)
system.mem_ctrl.dram.rank0.pwrStateTime::PRE_PDN            0                       # Time in different power states (Tick)
system.mem_ctrl.dram.rank0.pwrStateTime::ACT 3940437498000                       # Time in different power states (Tick)
system.mem_ctrl.dram.rank0.pwrStateTime::ACT_PDN            0                       # Time in different power states (Tick)
system.mem_ctrl.dram.rank1.actEnergy      22142046780                       # Energy for activate commands per rank (pJ) (Joule)
system.mem_ctrl.dram.rank1.preEnergy      11768765580                       # Energy for precharge commands per rank (pJ) (Joule)
system.mem_ctrl.dram.rank1.readEnergy     60268897080                       # Energy for read commands per rank (pJ) (Joule)
system.mem_ctrl.dram.rank1.writeEnergy         668160                       # Energy for write commands per rank (pJ) (Joule)
system.mem_ctrl.dram.rank1.refreshEnergy 451081222800.000061                       # Energy for refresh commands per rank (pJ) (Joule)
system.mem_ctrl.dram.rank1.actBackEnergy 1425797680800                       # Energy for active background per rank (pJ) (Joule)
system.mem_ctrl.dram.rank1.preBackEnergy 993618283200                       # Energy for precharge background per rank (pJ) (Joule)
system.mem_ctrl.dram.rank1.actPowerDownEnergy            0                       # Energy for active power-down per rank (pJ) (Joule)
system.mem_ctrl.dram.rank1.prePowerDownEnergy            0                       # Energy for precharge power-down per rank (pJ) (Joule)
system.mem_ctrl.dram.rank1.selfRefreshEnergy            0                       # Energy for self refresh per rank (pJ) (Joule)
system.mem_ctrl.dram.rank1.totalEnergy   2964677564400                       # Total energy per rank (pJ) (Joule)
system.mem_ctrl.dram.rank1.averagePower    518.817557                       # Core power per rank (mW) (Watt)
system.mem_ctrl.dram.rank1.totalIdleTime            0                       # Total Idle time Per DRAM Rank (Tick)
system.mem_ctrl.dram.rank1.pwrStateTime::IDLE 2571136370000                       # Time in different power states (Tick)
system.mem_ctrl.dram.rank1.pwrStateTime::REF 190812700000                       # Time in different power states (Tick)
system.mem_ctrl.dram.rank1.pwrStateTime::SREF            0                       # Time in different power states (Tick)
system.mem_ctrl.dram.rank1.pwrStateTime::PRE_PDN            0                       # Time in different power states (Tick)
system.mem_ctrl.dram.rank1.pwrStateTime::ACT 2952347842000                       # Time in different power states (Tick)
system.mem_ctrl.dram.rank1.pwrStateTime::ACT_PDN            0                       # Time in different power states (Tick)
system.mem_ctrl.power_state.pwrStateResidencyTicks::UNDEFINED 5714296912000                       # Cumulative time (in ticks) in various power states (Tick)
system.membus.transDist::ReadResp            18857805                       # Transaction distribution (Count)
system.membus.transDist::WritebackDirty             3                       # Transaction distribution (Count)
system.membus.transDist::WriteClean               256                       # Transaction distribution (Count)
system.membus.transDist::CleanEvict                 2                       # Transaction distribution (Count)
system.membus.transDist::ReadExReq               2179                       # Transaction distribution (Count)
system.membus.transDist::ReadExResp              2179                       # Transaction distribution (Count)
system.membus.transDist::ReadSharedReq       18857806                       # Transaction distribution (Count)
system.membus.transDist::CleanInvalidReq     18857124                       # Transaction distribution (Count)
system.membus.pktCount_system.l2cache.mem_side_port::system.mem_ctrl.port     56577354                       # Packet count per connected requestor and responder (Count)
system.membus.pktCount_system.l2cache.mem_side_port::total     56577354                       # Packet count per connected requestor and responder (Count)
system.membus.pktCount::total                56577354                       # Packet count per connected requestor and responder (Count)
system.membus.pktSize_system.l2cache.mem_side_port::system.mem_ctrl.port   1207055552                       # Cumulative packet size per connected requestor and responder (Byte)
system.membus.pktSize_system.l2cache.mem_side_port::total   1207055552                       # Cumulative packet size per connected requestor and responder (Byte)
system.membus.pktSize::total               1207055552                       # Cumulative packet size per connected requestor and responder (Byte)
system.membus.snoops                                0                       # Total snoops (Count)
system.membus.snoopTraffic                          0                       # Total snoop traffic (Byte)
system.membus.snoopFanout::samples           37717109                       # Request fanout histogram (Count)
system.membus.snoopFanout::mean                     0                       # Request fanout histogram (Count)
system.membus.snoopFanout::stdev                    0                       # Request fanout histogram (Count)
system.membus.snoopFanout::underflows               0      0.00%      0.00% # Request fanout histogram (Count)
system.membus.snoopFanout::0                 37717109    100.00%    100.00% # Request fanout histogram (Count)
system.membus.snoopFanout::1                        0      0.00%    100.00% # Request fanout histogram (Count)
system.membus.snoopFanout::overflows                0      0.00%    100.00% # Request fanout histogram (Count)
system.membus.snoopFanout::min_value                0                       # Request fanout histogram (Count)
system.membus.snoopFanout::max_value                0                       # Request fanout histogram (Count)
system.membus.snoopFanout::total             37717109                       # Request fanout histogram (Count)
system.membus.power_state.pwrStateResidencyTicks::UNDEFINED 5714296912000                       # Cumulative time (in ticks) in various power states (Tick)
system.membus.reqLayer2.occupancy         37718406000                       # Layer occupancy (ticks) (Tick)
system.membus.reqLayer2.utilization               0.0                       # Layer utilization (Ratio)
system.membus.respLayer0.occupancy       100200202250                       # Layer occupancy (ticks) (Tick)
system.membus.respLayer0.utilization              0.0                       # Layer utilization (Ratio)
system.membus.snoop_filter.totRequests       37717114                       # Total number of requests made to the snoop filter. (Count)
system.membus.snoop_filter.hitSingleRequests     18857129                       # Number of requests hitting in the snoop filter with a single holder of the requested data. (Count)
system.membus.snoop_filter.hitMultiRequests            0                       # Number of requests hitting in the snoop filter with multiple (>1) holders of the requested data. (Count)
system.membus.snoop_filter.totSnoops                0                       # Total number of snoops made to the snoop filter. (Count)
system.membus.snoop_filter.hitSingleSnoops            0                       # Number of snoops hitting in the snoop filter with a single holder of the requested data. (Count)
system.membus.snoop_filter.hitMultiSnoops            0                       # Number of snoops hitting in the snoop filter with multiple (>1) holders of the requested data. (Count)
system.workload.inst.arm                            0                       # number of arm instructions executed (Count)
system.workload.inst.quiesce                        0                       # number of quiesce instructions executed (Count)

---------- End Simulation Statistics   ----------
