
---------- Begin Simulation Statistics ----------
simSeconds                                   0.238586                       # Number of seconds simulated (Second)
simTicks                                 238586269000                       # Number of ticks simulated (Tick)
finalTick                                238586269000                       # Number of ticks from beginning of simulation (restored from checkpoints and never reset) (Tick)
simFreq                                  1000000000000                       # The number of ticks per simulated second ((Tick/Second))
hostSeconds                                    344.80                       # Real time elapsed on the host (Second)
hostTickRate                                691960284                       # The number of ticks simulated per host second (ticks/s) ((Tick/Second))
hostMemory                                     724468                       # Number of bytes of host memory used (Byte)
simInsts                                    103101646                       # Number of instructions simulated (Count)
simOps                                      176495709                       # Number of ops (including micro ops) simulated (Count)
hostInstRate                                   299021                       # Simulator instruction rate (inst/s) ((Count/Second))
hostOpRate                                     511882                       # Simulator op (including micro ops) rate (op/s) ((Count/Second))
system.clk_domain.clock                          1000                       # Clock period in ticks (Tick)
system.clk_domain.voltage_domain.voltage            1                       # Voltage in Volts (Volt)
system.cpu.numCycles                        238586270                       # Number of cpu cycles simulated (Cycle)
system.cpu.cpi                               2.314088                       # CPI: cycles per instruction (core level) ((Cycle/Count))
system.cpu.ipc                               0.432136                       # IPC: instructions per cycle (core level) ((Count/Cycle))
system.cpu.numWorkItemsStarted                      0                       # Number of work items this cpu started (Count)
system.cpu.numWorkItemsCompleted                    0                       # Number of work items this cpu completed (Count)
system.cpu.instsAdded                       246675297                       # Number of instructions added to the IQ (excludes non-spec) (Count)
system.cpu.nonSpecInstsAdded                  4981869                       # Number of non-speculative instructions added to the IQ (Count)
system.cpu.instsIssued                      207287234                       # Number of instructions issued (Count)
system.cpu.squashedInstsIssued                 643458                       # Number of squashed instructions issued (Count)
system.cpu.squashedInstsExamined             75161451                       # Number of squashed instructions iterated over during squash; mainly for profiling (Count)
system.cpu.squashedOperandsExamined         207200958                       # Number of squashed operands that are examined and possibly removed from graph (Count)
system.cpu.squashedNonSpecRemoved             2799339                       # Number of squashed non-spec instructions that were removed (Count)
system.cpu.numIssuedDist::samples           238561565                       # Number of insts issued each cycle (Count)
system.cpu.numIssuedDist::mean               0.868905                       # Number of insts issued each cycle (Count)
system.cpu.numIssuedDist::stdev              1.415354                       # Number of insts issued each cycle (Count)
system.cpu.numIssuedDist::underflows                0      0.00%      0.00% # Number of insts issued each cycle (Count)
system.cpu.numIssuedDist::0                 154395082     64.72%     64.72% # Number of insts issued each cycle (Count)
system.cpu.numIssuedDist::1                  21745909      9.12%     73.83% # Number of insts issued each cycle (Count)
system.cpu.numIssuedDist::2                  25469631     10.68%     84.51% # Number of insts issued each cycle (Count)
system.cpu.numIssuedDist::3                  23145200      9.70%     94.21% # Number of insts issued each cycle (Count)
system.cpu.numIssuedDist::4                   8867594      3.72%     97.93% # Number of insts issued each cycle (Count)
system.cpu.numIssuedDist::5                   2209752      0.93%     98.86% # Number of insts issued each cycle (Count)
system.cpu.numIssuedDist::6                   1014885      0.43%     99.28% # Number of insts issued each cycle (Count)
system.cpu.numIssuedDist::7                   1150079      0.48%     99.76% # Number of insts issued each cycle (Count)
system.cpu.numIssuedDist::8                    563433      0.24%    100.00% # Number of insts issued each cycle (Count)
system.cpu.numIssuedDist::overflows                 0      0.00%    100.00% # Number of insts issued each cycle (Count)
system.cpu.numIssuedDist::min_value                 0                       # Number of insts issued each cycle (Count)
system.cpu.numIssuedDist::max_value                 8                       # Number of insts issued each cycle (Count)
system.cpu.numIssuedDist::total             238561565                       # Number of insts issued each cycle (Count)
system.cpu.statFuBusy::No_OpClass                   0      0.00%      0.00% # attempts to use FU when none available (Count)
system.cpu.statFuBusy::IntAlu                   15926      2.16%      2.16% # attempts to use FU when none available (Count)
system.cpu.statFuBusy::IntMult                      0      0.00%      2.16% # attempts to use FU when none available (Count)
system.cpu.statFuBusy::IntDiv                       0      0.00%      2.16% # attempts to use FU when none available (Count)
system.cpu.statFuBusy::FloatAdd                     0      0.00%      2.16% # attempts to use FU when none available (Count)
system.cpu.statFuBusy::FloatCmp                     0      0.00%      2.16% # attempts to use FU when none available (Count)
system.cpu.statFuBusy::FloatCvt                     0      0.00%      2.16% # attempts to use FU when none available (Count)
system.cpu.statFuBusy::FloatMult                    0      0.00%      2.16% # attempts to use FU when none available (Count)
system.cpu.statFuBusy::FloatMultAcc                 0      0.00%      2.16% # attempts to use FU when none available (Count)
system.cpu.statFuBusy::FloatDiv                     0      0.00%      2.16% # attempts to use FU when none available (Count)
system.cpu.statFuBusy::FloatMisc                    0      0.00%      2.16% # attempts to use FU when none available (Count)
system.cpu.statFuBusy::FloatSqrt                    0      0.00%      2.16% # attempts to use FU when none available (Count)
system.cpu.statFuBusy::SimdAdd                      0      0.00%      2.16% # attempts to use FU when none available (Count)
system.cpu.statFuBusy::SimdAddAcc                   0      0.00%      2.16% # attempts to use FU when none available (Count)
system.cpu.statFuBusy::SimdAlu                     10      0.00%      2.16% # attempts to use FU when none available (Count)
system.cpu.statFuBusy::SimdCmp                      0      0.00%      2.16% # attempts to use FU when none available (Count)
system.cpu.statFuBusy::SimdCvt                      8      0.00%      2.16% # attempts to use FU when none available (Count)
system.cpu.statFuBusy::SimdMisc                     1      0.00%      2.16% # attempts to use FU when none available (Count)
system.cpu.statFuBusy::SimdMult                     0      0.00%      2.16% # attempts to use FU when none available (Count)
system.cpu.statFuBusy::SimdMultAcc                  0      0.00%      2.16% # attempts to use FU when none available (Count)
system.cpu.statFuBusy::SimdMatMultAcc               0      0.00%      2.16% # attempts to use FU when none available (Count)
system.cpu.statFuBusy::SimdShift                    0      0.00%      2.16% # attempts to use FU when none available (Count)
system.cpu.statFuBusy::SimdShiftAcc                 0      0.00%      2.16% # attempts to use FU when none available (Count)
system.cpu.statFuBusy::SimdDiv                      0      0.00%      2.16% # attempts to use FU when none available (Count)
system.cpu.statFuBusy::SimdSqrt                     0      0.00%      2.16% # attempts to use FU when none available (Count)
system.cpu.statFuBusy::SimdFloatAdd                 0      0.00%      2.16% # attempts to use FU when none available (Count)
system.cpu.statFuBusy::SimdFloatAlu                 0      0.00%      2.16% # attempts to use FU when none available (Count)
system.cpu.statFuBusy::SimdFloatCmp                 0      0.00%      2.16% # attempts to use FU when none available (Count)
system.cpu.statFuBusy::SimdFloatCvt                 0      0.00%      2.16% # attempts to use FU when none available (Count)
system.cpu.statFuBusy::SimdFloatDiv                 0      0.00%      2.16% # attempts to use FU when none available (Count)
system.cpu.statFuBusy::SimdFloatMisc                0      0.00%      2.16% # attempts to use FU when none available (Count)
system.cpu.statFuBusy::SimdFloatMult                0      0.00%      2.16% # attempts to use FU when none available (Count)
system.cpu.statFuBusy::SimdFloatMultAcc             0      0.00%      2.16% # attempts to use FU when none available (Count)
system.cpu.statFuBusy::SimdFloatMatMultAcc            0      0.00%      2.16% # attempts to use FU when none available (Count)
system.cpu.statFuBusy::SimdFloatSqrt                0      0.00%      2.16% # attempts to use FU when none available (Count)
system.cpu.statFuBusy::SimdReduceAdd                0      0.00%      2.16% # attempts to use FU when none available (Count)
system.cpu.statFuBusy::SimdReduceAlu                0      0.00%      2.16% # attempts to use FU when none available (Count)
system.cpu.statFuBusy::SimdReduceCmp                0      0.00%      2.16% # attempts to use FU when none available (Count)
system.cpu.statFuBusy::SimdFloatReduceAdd            0      0.00%      2.16% # attempts to use FU when none available (Count)
system.cpu.statFuBusy::SimdFloatReduceCmp            0      0.00%      2.16% # attempts to use FU when none available (Count)
system.cpu.statFuBusy::SimdAes                      0      0.00%      2.16% # attempts to use FU when none available (Count)
system.cpu.statFuBusy::SimdAesMix                   0      0.00%      2.16% # attempts to use FU when none available (Count)
system.cpu.statFuBusy::SimdSha1Hash                 0      0.00%      2.16% # attempts to use FU when none available (Count)
system.cpu.statFuBusy::SimdSha1Hash2                0      0.00%      2.16% # attempts to use FU when none available (Count)
system.cpu.statFuBusy::SimdSha256Hash               0      0.00%      2.16% # attempts to use FU when none available (Count)
system.cpu.statFuBusy::SimdSha256Hash2              0      0.00%      2.16% # attempts to use FU when none available (Count)
system.cpu.statFuBusy::SimdShaSigma2                0      0.00%      2.16% # attempts to use FU when none available (Count)
system.cpu.statFuBusy::SimdShaSigma3                0      0.00%      2.16% # attempts to use FU when none available (Count)
system.cpu.statFuBusy::SimdPredAlu                  0      0.00%      2.16% # attempts to use FU when none available (Count)
system.cpu.statFuBusy::Matrix                       0      0.00%      2.16% # attempts to use FU when none available (Count)
system.cpu.statFuBusy::MatrixMov                    0      0.00%      2.16% # attempts to use FU when none available (Count)
system.cpu.statFuBusy::MatrixOP                     0      0.00%      2.16% # attempts to use FU when none available (Count)
system.cpu.statFuBusy::MemRead                 720344     97.76%     99.92% # attempts to use FU when none available (Count)
system.cpu.statFuBusy::MemWrite                   569      0.08%    100.00% # attempts to use FU when none available (Count)
system.cpu.statFuBusy::FloatMemRead                 3      0.00%    100.00% # attempts to use FU when none available (Count)
system.cpu.statFuBusy::FloatMemWrite               11      0.00%    100.00% # attempts to use FU when none available (Count)
system.cpu.statFuBusy::IprAccess                    0      0.00%    100.00% # attempts to use FU when none available (Count)
system.cpu.statFuBusy::InstPrefetch                 0      0.00%    100.00% # attempts to use FU when none available (Count)
system.cpu.statFuBusy::VectorUnitStrideLoad            0      0.00%    100.00% # attempts to use FU when none available (Count)
system.cpu.statFuBusy::VectorUnitStrideStore            0      0.00%    100.00% # attempts to use FU when none available (Count)
system.cpu.statFuBusy::VectorUnitStrideMaskLoad            0      0.00%    100.00% # attempts to use FU when none available (Count)
system.cpu.statFuBusy::VectorUnitStrideMaskStore            0      0.00%    100.00% # attempts to use FU when none available (Count)
system.cpu.statFuBusy::VectorStridedLoad            0      0.00%    100.00% # attempts to use FU when none available (Count)
system.cpu.statFuBusy::VectorStridedStore            0      0.00%    100.00% # attempts to use FU when none available (Count)
system.cpu.statFuBusy::VectorIndexedLoad            0      0.00%    100.00% # attempts to use FU when none available (Count)
system.cpu.statFuBusy::VectorIndexedStore            0      0.00%    100.00% # attempts to use FU when none available (Count)
system.cpu.statFuBusy::VectorUnitStrideFaultOnlyFirstLoad            0      0.00%    100.00% # attempts to use FU when none available (Count)
system.cpu.statFuBusy::VectorWholeRegisterLoad            0      0.00%    100.00% # attempts to use FU when none available (Count)
system.cpu.statFuBusy::VectorWholeRegisterStore            0      0.00%    100.00% # attempts to use FU when none available (Count)
system.cpu.statFuBusy::VectorIntegerArith            0      0.00%    100.00% # attempts to use FU when none available (Count)
system.cpu.statFuBusy::VectorFloatArith             0      0.00%    100.00% # attempts to use FU when none available (Count)
system.cpu.statFuBusy::VectorFloatConvert            0      0.00%    100.00% # attempts to use FU when none available (Count)
system.cpu.statFuBusy::VectorIntegerReduce            0      0.00%    100.00% # attempts to use FU when none available (Count)
system.cpu.statFuBusy::VectorFloatReduce            0      0.00%    100.00% # attempts to use FU when none available (Count)
system.cpu.statFuBusy::VectorMisc                   0      0.00%    100.00% # attempts to use FU when none available (Count)
system.cpu.statFuBusy::VectorIntegerExtension            0      0.00%    100.00% # attempts to use FU when none available (Count)
system.cpu.statFuBusy::VectorConfig                 0      0.00%    100.00% # attempts to use FU when none available (Count)
system.cpu.statIssuedInstType_0::No_OpClass          944      0.00%      0.00% # Number of instructions issued per FU type, per thread (Count)
system.cpu.statIssuedInstType_0::IntAlu     148611529     71.69%     71.69% # Number of instructions issued per FU type, per thread (Count)
system.cpu.statIssuedInstType_0::IntMult       785505      0.38%     72.07% # Number of instructions issued per FU type, per thread (Count)
system.cpu.statIssuedInstType_0::IntDiv         39208      0.02%     72.09% # Number of instructions issued per FU type, per thread (Count)
system.cpu.statIssuedInstType_0::FloatAdd          328      0.00%     72.09% # Number of instructions issued per FU type, per thread (Count)
system.cpu.statIssuedInstType_0::FloatCmp            0      0.00%     72.09% # Number of instructions issued per FU type, per thread (Count)
system.cpu.statIssuedInstType_0::FloatCvt            0      0.00%     72.09% # Number of instructions issued per FU type, per thread (Count)
system.cpu.statIssuedInstType_0::FloatMult            0      0.00%     72.09% # Number of instructions issued per FU type, per thread (Count)
system.cpu.statIssuedInstType_0::FloatMultAcc            0      0.00%     72.09% # Number of instructions issued per FU type, per thread (Count)
system.cpu.statIssuedInstType_0::FloatDiv            0      0.00%     72.09% # Number of instructions issued per FU type, per thread (Count)
system.cpu.statIssuedInstType_0::FloatMisc            0      0.00%     72.09% # Number of instructions issued per FU type, per thread (Count)
system.cpu.statIssuedInstType_0::FloatSqrt            0      0.00%     72.09% # Number of instructions issued per FU type, per thread (Count)
system.cpu.statIssuedInstType_0::SimdAdd            0      0.00%     72.09% # Number of instructions issued per FU type, per thread (Count)
system.cpu.statIssuedInstType_0::SimdAddAcc            0      0.00%     72.09% # Number of instructions issued per FU type, per thread (Count)
system.cpu.statIssuedInstType_0::SimdAlu         1620      0.00%     72.09% # Number of instructions issued per FU type, per thread (Count)
system.cpu.statIssuedInstType_0::SimdCmp            0      0.00%     72.09% # Number of instructions issued per FU type, per thread (Count)
system.cpu.statIssuedInstType_0::SimdCvt         1848      0.00%     72.09% # Number of instructions issued per FU type, per thread (Count)
system.cpu.statIssuedInstType_0::SimdMisc         3236      0.00%     72.10% # Number of instructions issued per FU type, per thread (Count)
system.cpu.statIssuedInstType_0::SimdMult            0      0.00%     72.10% # Number of instructions issued per FU type, per thread (Count)
system.cpu.statIssuedInstType_0::SimdMultAcc            0      0.00%     72.10% # Number of instructions issued per FU type, per thread (Count)
system.cpu.statIssuedInstType_0::SimdMatMultAcc            0      0.00%     72.10% # Number of instructions issued per FU type, per thread (Count)
system.cpu.statIssuedInstType_0::SimdShift            0      0.00%     72.10% # Number of instructions issued per FU type, per thread (Count)
system.cpu.statIssuedInstType_0::SimdShiftAcc            0      0.00%     72.10% # Number of instructions issued per FU type, per thread (Count)
system.cpu.statIssuedInstType_0::SimdDiv            0      0.00%     72.10% # Number of instructions issued per FU type, per thread (Count)
system.cpu.statIssuedInstType_0::SimdSqrt            0      0.00%     72.10% # Number of instructions issued per FU type, per thread (Count)
system.cpu.statIssuedInstType_0::SimdFloatAdd            0      0.00%     72.10% # Number of instructions issued per FU type, per thread (Count)
system.cpu.statIssuedInstType_0::SimdFloatAlu            0      0.00%     72.10% # Number of instructions issued per FU type, per thread (Count)
system.cpu.statIssuedInstType_0::SimdFloatCmp            0      0.00%     72.10% # Number of instructions issued per FU type, per thread (Count)
system.cpu.statIssuedInstType_0::SimdFloatCvt            0      0.00%     72.10% # Number of instructions issued per FU type, per thread (Count)
system.cpu.statIssuedInstType_0::SimdFloatDiv            0      0.00%     72.10% # Number of instructions issued per FU type, per thread (Count)
system.cpu.statIssuedInstType_0::SimdFloatMisc            0      0.00%     72.10% # Number of instructions issued per FU type, per thread (Count)
system.cpu.statIssuedInstType_0::SimdFloatMult            0      0.00%     72.10% # Number of instructions issued per FU type, per thread (Count)
system.cpu.statIssuedInstType_0::SimdFloatMultAcc            0      0.00%     72.10% # Number of instructions issued per FU type, per thread (Count)
system.cpu.statIssuedInstType_0::SimdFloatMatMultAcc            0      0.00%     72.10% # Number of instructions issued per FU type, per thread (Count)
system.cpu.statIssuedInstType_0::SimdFloatSqrt            0      0.00%     72.10% # Number of instructions issued per FU type, per thread (Count)
system.cpu.statIssuedInstType_0::SimdReduceAdd            0      0.00%     72.10% # Number of instructions issued per FU type, per thread (Count)
system.cpu.statIssuedInstType_0::SimdReduceAlu            0      0.00%     72.10% # Number of instructions issued per FU type, per thread (Count)
system.cpu.statIssuedInstType_0::SimdReduceCmp            0      0.00%     72.10% # Number of instructions issued per FU type, per thread (Count)
system.cpu.statIssuedInstType_0::SimdFloatReduceAdd            0      0.00%     72.10% # Number of instructions issued per FU type, per thread (Count)
system.cpu.statIssuedInstType_0::SimdFloatReduceCmp            0      0.00%     72.10% # Number of instructions issued per FU type, per thread (Count)
system.cpu.statIssuedInstType_0::SimdAes            0      0.00%     72.10% # Number of instructions issued per FU type, per thread (Count)
system.cpu.statIssuedInstType_0::SimdAesMix            0      0.00%     72.10% # Number of instructions issued per FU type, per thread (Count)
system.cpu.statIssuedInstType_0::SimdSha1Hash            0      0.00%     72.10% # Number of instructions issued per FU type, per thread (Count)
system.cpu.statIssuedInstType_0::SimdSha1Hash2            0      0.00%     72.10% # Number of instructions issued per FU type, per thread (Count)
system.cpu.statIssuedInstType_0::SimdSha256Hash            0      0.00%     72.10% # Number of instructions issued per FU type, per thread (Count)
system.cpu.statIssuedInstType_0::SimdSha256Hash2            0      0.00%     72.10% # Number of instructions issued per FU type, per thread (Count)
system.cpu.statIssuedInstType_0::SimdShaSigma2            0      0.00%     72.10% # Number of instructions issued per FU type, per thread (Count)
system.cpu.statIssuedInstType_0::SimdShaSigma3            0      0.00%     72.10% # Number of instructions issued per FU type, per thread (Count)
system.cpu.statIssuedInstType_0::SimdPredAlu            0      0.00%     72.10% # Number of instructions issued per FU type, per thread (Count)
system.cpu.statIssuedInstType_0::Matrix             0      0.00%     72.10% # Number of instructions issued per FU type, per thread (Count)
system.cpu.statIssuedInstType_0::MatrixMov            0      0.00%     72.10% # Number of instructions issued per FU type, per thread (Count)
system.cpu.statIssuedInstType_0::MatrixOP            0      0.00%     72.10% # Number of instructions issued per FU type, per thread (Count)
system.cpu.statIssuedInstType_0::MemRead     37737772     18.21%     90.30% # Number of instructions issued per FU type, per thread (Count)
system.cpu.statIssuedInstType_0::MemWrite     20104090      9.70%    100.00% # Number of instructions issued per FU type, per thread (Count)
system.cpu.statIssuedInstType_0::FloatMemRead          960      0.00%    100.00% # Number of instructions issued per FU type, per thread (Count)
system.cpu.statIssuedInstType_0::FloatMemWrite          194      0.00%    100.00% # Number of instructions issued per FU type, per thread (Count)
system.cpu.statIssuedInstType_0::IprAccess            0      0.00%    100.00% # Number of instructions issued per FU type, per thread (Count)
system.cpu.statIssuedInstType_0::InstPrefetch            0      0.00%    100.00% # Number of instructions issued per FU type, per thread (Count)
system.cpu.statIssuedInstType_0::VectorUnitStrideLoad            0      0.00%    100.00% # Number of instructions issued per FU type, per thread (Count)
system.cpu.statIssuedInstType_0::VectorUnitStrideStore            0      0.00%    100.00% # Number of instructions issued per FU type, per thread (Count)
system.cpu.statIssuedInstType_0::VectorUnitStrideMaskLoad            0      0.00%    100.00% # Number of instructions issued per FU type, per thread (Count)
system.cpu.statIssuedInstType_0::VectorUnitStrideMaskStore            0      0.00%    100.00% # Number of instructions issued per FU type, per thread (Count)
system.cpu.statIssuedInstType_0::VectorStridedLoad            0      0.00%    100.00% # Number of instructions issued per FU type, per thread (Count)
system.cpu.statIssuedInstType_0::VectorStridedStore            0      0.00%    100.00% # Number of instructions issued per FU type, per thread (Count)
system.cpu.statIssuedInstType_0::VectorIndexedLoad            0      0.00%    100.00% # Number of instructions issued per FU type, per thread (Count)
system.cpu.statIssuedInstType_0::VectorIndexedStore            0      0.00%    100.00% # Number of instructions issued per FU type, per thread (Count)
system.cpu.statIssuedInstType_0::VectorUnitStrideFaultOnlyFirstLoad            0      0.00%    100.00% # Number of instructions issued per FU type, per thread (Count)
system.cpu.statIssuedInstType_0::VectorWholeRegisterLoad            0      0.00%    100.00% # Number of instructions issued per FU type, per thread (Count)
system.cpu.statIssuedInstType_0::VectorWholeRegisterStore            0      0.00%    100.00% # Number of instructions issued per FU type, per thread (Count)
system.cpu.statIssuedInstType_0::VectorIntegerArith            0      0.00%    100.00% # Number of instructions issued per FU type, per thread (Count)
system.cpu.statIssuedInstType_0::VectorFloatArith            0      0.00%    100.00% # Number of instructions issued per FU type, per thread (Count)
system.cpu.statIssuedInstType_0::VectorFloatConvert            0      0.00%    100.00% # Number of instructions issued per FU type, per thread (Count)
system.cpu.statIssuedInstType_0::VectorIntegerReduce            0      0.00%    100.00% # Number of instructions issued per FU type, per thread (Count)
system.cpu.statIssuedInstType_0::VectorFloatReduce            0      0.00%    100.00% # Number of instructions issued per FU type, per thread (Count)
system.cpu.statIssuedInstType_0::VectorMisc            0      0.00%    100.00% # Number of instructions issued per FU type, per thread (Count)
system.cpu.statIssuedInstType_0::VectorIntegerExtension            0      0.00%    100.00% # Number of instructions issued per FU type, per thread (Count)
system.cpu.statIssuedInstType_0::VectorConfig            0      0.00%    100.00% # Number of instructions issued per FU type, per thread (Count)
system.cpu.statIssuedInstType_0::total      207287234                       # Number of instructions issued per FU type, per thread (Count)
system.cpu.issueRate                         0.868815                       # Inst issue rate ((Count/Cycle))
system.cpu.fuBusy                              736872                       # FU busy when requested (Count)
system.cpu.fuBusyRate                        0.003555                       # FU busy rate (busy events/executed inst) ((Count/Count))
system.cpu.intInstQueueReads                654497630                       # Number of integer instruction queue reads (Count)
system.cpu.intInstQueueWrites               327678134                       # Number of integer instruction queue writes (Count)
system.cpu.intInstQueueWakeupAccesses       206166172                       # Number of integer instruction queue wakeup accesses (Count)
system.cpu.fpInstQueueReads                     18733                       # Number of floating instruction queue reads (Count)
system.cpu.fpInstQueueWrites                     9670                       # Number of floating instruction queue writes (Count)
system.cpu.fpInstQueueWakeupAccesses             9306                       # Number of floating instruction queue wakeup accesses (Count)
system.cpu.vecInstQueueReads                        0                       # Number of vector instruction queue reads (Count)
system.cpu.vecInstQueueWrites                       0                       # Number of vector instruction queue writes (Count)
system.cpu.vecInstQueueWakeupAccesses               0                       # Number of vector instruction queue wakeup accesses (Count)
system.cpu.intAluAccesses                   208013789                       # Number of integer alu accesses (Count)
system.cpu.fpAluAccesses                         9373                       # Number of floating point alu accesses (Count)
system.cpu.vecAluAccesses                           0                       # Number of vector alu accesses (Count)
system.cpu.numSquashedInsts                    606254                       # Number of squashed instructions skipped in execute (Count)
system.cpu.numSwp                                   0                       # Number of swp insts executed (Count)
system.cpu.timesIdled                             640                       # Number of times that the entire CPU went into an idle state and unscheduled itself (Count)
system.cpu.idleCycles                           24705                       # Total number of cycles that the CPU has spent unscheduled due to idling (Cycle)
system.cpu.MemDepUnit__0.insertedLoads       50277568                       # Number of loads inserted to the mem dependence unit. (Count)
system.cpu.MemDepUnit__0.insertedStores      29007665                       # Number of stores inserted to the mem dependence unit. (Count)
system.cpu.MemDepUnit__0.conflictingLoads     44982127                       # Number of conflicting loads. (Count)
system.cpu.MemDepUnit__0.conflictingStores     23403537                       # Number of conflicting stores. (Count)
system.cpu.MemDepUnit__1.insertedLoads              0                       # Number of loads inserted to the mem dependence unit. (Count)
system.cpu.MemDepUnit__1.insertedStores             0                       # Number of stores inserted to the mem dependence unit. (Count)
system.cpu.MemDepUnit__1.conflictingLoads            0                       # Number of conflicting loads. (Count)
system.cpu.MemDepUnit__1.conflictingStores            0                       # Number of conflicting stores. (Count)
system.cpu.MemDepUnit__2.insertedLoads              0                       # Number of loads inserted to the mem dependence unit. (Count)
system.cpu.MemDepUnit__2.insertedStores             0                       # Number of stores inserted to the mem dependence unit. (Count)
system.cpu.MemDepUnit__2.conflictingLoads            0                       # Number of conflicting loads. (Count)
system.cpu.MemDepUnit__2.conflictingStores            0                       # Number of conflicting stores. (Count)
system.cpu.MemDepUnit__3.insertedLoads              0                       # Number of loads inserted to the mem dependence unit. (Count)
system.cpu.MemDepUnit__3.insertedStores             0                       # Number of stores inserted to the mem dependence unit. (Count)
system.cpu.MemDepUnit__3.conflictingLoads            0                       # Number of conflicting loads. (Count)
system.cpu.MemDepUnit__3.conflictingStores            0                       # Number of conflicting stores. (Count)
system.cpu.branchPred.lookups                21619965                       # Number of BP lookups (Count)
system.cpu.branchPred.condPredicted          20791374                       # Number of conditional branches predicted (Count)
system.cpu.branchPred.condIncorrect            266312                       # Number of conditional branches incorrect (Count)
system.cpu.branchPred.BTBLookups             19723626                       # Number of BTB lookups (Count)
system.cpu.branchPred.BTBUpdates               174851                       # Number of BTB updates (Count)
system.cpu.branchPred.BTBHits                19722561                       # Number of BTB hits (Count)
system.cpu.branchPred.BTBHitRatio            0.999946                       # BTB Hit Ratio (Ratio)
system.cpu.branchPred.RASUsed                   86815                       # Number of times the RAS was used to get a target. (Count)
system.cpu.branchPred.RASIncorrect                  2                       # Number of incorrect RAS predictions. (Count)
system.cpu.branchPred.indirectLookups            1351                       # Number of indirect predictor lookups. (Count)
system.cpu.branchPred.indirectHits               1063                       # Number of indirect target hits. (Count)
system.cpu.branchPred.indirectMisses              288                       # Number of indirect misses. (Count)
system.cpu.branchPred.indirectMispredicted          228                       # Number of mispredicted indirect branches. (Count)
system.cpu.branchPred.loop_predictor.correct     12261524                       # Number of times the loop predictor is the provider and the prediction is correct (Count)
system.cpu.branchPred.loop_predictor.wrong      1071355                       # Number of times the loop predictor is the provider and the prediction is wrong (Count)
system.cpu.branchPred.statistical_corrector.correct     13237869                       # Number of time the SC predictor is the provider and the prediction is correct (Count)
system.cpu.branchPred.statistical_corrector.wrong        95010                       # Number of time the SC predictor is the provider and the prediction is wrong (Count)
system.cpu.branchPred.tage.longestMatchProviderCorrect      9534265                       # Number of times TAGE Longest Match is the provider and the prediction is correct (Count)
system.cpu.branchPred.tage.altMatchProviderCorrect        62635                       # Number of times TAGE Alt Match is the provider and the prediction is correct (Count)
system.cpu.branchPred.tage.bimodalAltMatchProviderCorrect          259                       # Number of times TAGE Alt Match is the bimodal and it is the provider and the prediction is correct (Count)
system.cpu.branchPred.tage.bimodalProviderCorrect      3626469                       # Number of times there are no hits on the TAGE tables and the bimodal prediction is correct (Count)
system.cpu.branchPred.tage.longestMatchProviderWrong        46994                       # Number of times TAGE Longest Match is the provider and the prediction is wrong (Count)
system.cpu.branchPred.tage.altMatchProviderWrong        61719                       # Number of times TAGE Alt Match is the provider and the prediction is wrong (Count)
system.cpu.branchPred.tage.bimodalAltMatchProviderWrong           40                       # Number of times TAGE Alt Match is the bimodal and it is the provider and the prediction is wrong (Count)
system.cpu.branchPred.tage.bimodalProviderWrong          498                       # Number of times there are no hits on the TAGE tables and the bimodal prediction is wrong (Count)
system.cpu.branchPred.tage.altMatchProviderWouldHaveHit          152                       # Number of times TAGE Longest Match is the provider, the prediction is wrong and Alt Match prediction was correct (Count)
system.cpu.branchPred.tage.longestMatchProviderWouldHaveHit        31454                       # Number of times TAGE Alt Match is the provider, the prediction is wrong and Longest Match prediction was correct (Count)
system.cpu.branchPred.tage.longestMatchProvider::0            0                       # TAGE provider for longest match (Count)
system.cpu.branchPred.tage.longestMatchProvider::1        65720                       # TAGE provider for longest match (Count)
system.cpu.branchPred.tage.longestMatchProvider::2      1235412                       # TAGE provider for longest match (Count)
system.cpu.branchPred.tage.longestMatchProvider::3       122990                       # TAGE provider for longest match (Count)
system.cpu.branchPred.tage.longestMatchProvider::4      1217758                       # TAGE provider for longest match (Count)
system.cpu.branchPred.tage.longestMatchProvider::5      1757336                       # TAGE provider for longest match (Count)
system.cpu.branchPred.tage.longestMatchProvider::6      2697410                       # TAGE provider for longest match (Count)
system.cpu.branchPred.tage.longestMatchProvider::7       659518                       # TAGE provider for longest match (Count)
system.cpu.branchPred.tage.longestMatchProvider::8       419351                       # TAGE provider for longest match (Count)
system.cpu.branchPred.tage.longestMatchProvider::9       702723                       # TAGE provider for longest match (Count)
system.cpu.branchPred.tage.longestMatchProvider::10       827395                       # TAGE provider for longest match (Count)
system.cpu.branchPred.tage.altMatchProvider::0      1406688                       # TAGE provider for alt match (Count)
system.cpu.branchPred.tage.altMatchProvider::1        63149                       # TAGE provider for alt match (Count)
system.cpu.branchPred.tage.altMatchProvider::2      1084879                       # TAGE provider for alt match (Count)
system.cpu.branchPred.tage.altMatchProvider::3       161516                       # TAGE provider for alt match (Count)
system.cpu.branchPred.tage.altMatchProvider::4      1818769                       # TAGE provider for alt match (Count)
system.cpu.branchPred.tage.altMatchProvider::5      2594000                       # TAGE provider for alt match (Count)
system.cpu.branchPred.tage.altMatchProvider::6       731967                       # TAGE provider for alt match (Count)
system.cpu.branchPred.tage.altMatchProvider::7       539394                       # TAGE provider for alt match (Count)
system.cpu.branchPred.tage.altMatchProvider::8       813758                       # TAGE provider for alt match (Count)
system.cpu.branchPred.tage.altMatchProvider::9       491493                       # TAGE provider for alt match (Count)
system.cpu.branchPred.tage.altMatchProvider::10            0                       # TAGE provider for alt match (Count)
system.cpu.commit.commitSquashedInsts        75159202                       # The number of squashed insts skipped by commit (Count)
system.cpu.commit.commitNonSpecStalls         2182530                       # The number of times commit has been forced to stall to communicate backwards (Count)
system.cpu.commit.branchMispredicts             93980                       # The number of times a branch was mispredicted (Count)
system.cpu.commit.numCommittedDist::samples    228644999                       # Number of insts commited each cycle (Count)
system.cpu.commit.numCommittedDist::mean     0.771920                       # Number of insts commited each cycle (Count)
system.cpu.commit.numCommittedDist::stdev     1.580236                       # Number of insts commited each cycle (Count)
system.cpu.commit.numCommittedDist::underflows            0      0.00%      0.00% # Number of insts commited each cycle (Count)
system.cpu.commit.numCommittedDist::0       164597639     71.99%     71.99% # Number of insts commited each cycle (Count)
system.cpu.commit.numCommittedDist::1        19813654      8.67%     80.65% # Number of insts commited each cycle (Count)
system.cpu.commit.numCommittedDist::2        15545121      6.80%     87.45% # Number of insts commited each cycle (Count)
system.cpu.commit.numCommittedDist::3        14271710      6.24%     93.69% # Number of insts commited each cycle (Count)
system.cpu.commit.numCommittedDist::4          187605      0.08%     93.78% # Number of insts commited each cycle (Count)
system.cpu.commit.numCommittedDist::5         9466610      4.14%     97.92% # Number of insts commited each cycle (Count)
system.cpu.commit.numCommittedDist::6         1702463      0.74%     98.66% # Number of insts commited each cycle (Count)
system.cpu.commit.numCommittedDist::7            3141      0.00%     98.66% # Number of insts commited each cycle (Count)
system.cpu.commit.numCommittedDist::8         3057056      1.34%    100.00% # Number of insts commited each cycle (Count)
system.cpu.commit.numCommittedDist::overflows            0      0.00%    100.00% # Number of insts commited each cycle (Count)
system.cpu.commit.numCommittedDist::min_value            0                       # Number of insts commited each cycle (Count)
system.cpu.commit.numCommittedDist::max_value            8                       # Number of insts commited each cycle (Count)
system.cpu.commit.numCommittedDist::total    228644999                       # Number of insts commited each cycle (Count)
system.cpu.commit.amos                              0                       # Number of atomic instructions committed (Count)
system.cpu.commit.membars                     2182530                       # Number of memory barriers committed (Count)
system.cpu.commit.functionCalls                 84180                       # Number of function calls committed. (Count)
system.cpu.commit.committedInstType_0::No_OpClass          629      0.00%      0.00% # Class of committed instruction (Count)
system.cpu.commit.committedInstType_0::IntAlu    122511610     69.41%     69.41% # Class of committed instruction (Count)
system.cpu.commit.committedInstType_0::IntMult       782257      0.44%     69.86% # Class of committed instruction (Count)
system.cpu.commit.committedInstType_0::IntDiv        38885      0.02%     69.88% # Class of committed instruction (Count)
system.cpu.commit.committedInstType_0::FloatAdd          328      0.00%     69.88% # Class of committed instruction (Count)
system.cpu.commit.committedInstType_0::FloatCmp            0      0.00%     69.88% # Class of committed instruction (Count)
system.cpu.commit.committedInstType_0::FloatCvt            0      0.00%     69.88% # Class of committed instruction (Count)
system.cpu.commit.committedInstType_0::FloatMult            0      0.00%     69.88% # Class of committed instruction (Count)
system.cpu.commit.committedInstType_0::FloatMultAcc            0      0.00%     69.88% # Class of committed instruction (Count)
system.cpu.commit.committedInstType_0::FloatDiv            0      0.00%     69.88% # Class of committed instruction (Count)
system.cpu.commit.committedInstType_0::FloatMisc            0      0.00%     69.88% # Class of committed instruction (Count)
system.cpu.commit.committedInstType_0::FloatSqrt            0      0.00%     69.88% # Class of committed instruction (Count)
system.cpu.commit.committedInstType_0::SimdAdd            0      0.00%     69.88% # Class of committed instruction (Count)
system.cpu.commit.committedInstType_0::SimdAddAcc            0      0.00%     69.88% # Class of committed instruction (Count)
system.cpu.commit.committedInstType_0::SimdAlu         1602      0.00%     69.88% # Class of committed instruction (Count)
system.cpu.commit.committedInstType_0::SimdCmp            0      0.00%     69.88% # Class of committed instruction (Count)
system.cpu.commit.committedInstType_0::SimdCvt         1814      0.00%     69.88% # Class of committed instruction (Count)
system.cpu.commit.committedInstType_0::SimdMisc         3230      0.00%     69.88% # Class of committed instruction (Count)
system.cpu.commit.committedInstType_0::SimdMult            0      0.00%     69.88% # Class of committed instruction (Count)
system.cpu.commit.committedInstType_0::SimdMultAcc            0      0.00%     69.88% # Class of committed instruction (Count)
system.cpu.commit.committedInstType_0::SimdMatMultAcc            0      0.00%     69.88% # Class of committed instruction (Count)
system.cpu.commit.committedInstType_0::SimdShift            0      0.00%     69.88% # Class of committed instruction (Count)
system.cpu.commit.committedInstType_0::SimdShiftAcc            0      0.00%     69.88% # Class of committed instruction (Count)
system.cpu.commit.committedInstType_0::SimdDiv            0      0.00%     69.88% # Class of committed instruction (Count)
system.cpu.commit.committedInstType_0::SimdSqrt            0      0.00%     69.88% # Class of committed instruction (Count)
system.cpu.commit.committedInstType_0::SimdFloatAdd            0      0.00%     69.88% # Class of committed instruction (Count)
system.cpu.commit.committedInstType_0::SimdFloatAlu            0      0.00%     69.88% # Class of committed instruction (Count)
system.cpu.commit.committedInstType_0::SimdFloatCmp            0      0.00%     69.88% # Class of committed instruction (Count)
system.cpu.commit.committedInstType_0::SimdFloatCvt            0      0.00%     69.88% # Class of committed instruction (Count)
system.cpu.commit.committedInstType_0::SimdFloatDiv            0      0.00%     69.88% # Class of committed instruction (Count)
system.cpu.commit.committedInstType_0::SimdFloatMisc            0      0.00%     69.88% # Class of committed instruction (Count)
system.cpu.commit.committedInstType_0::SimdFloatMult            0      0.00%     69.88% # Class of committed instruction (Count)
system.cpu.commit.committedInstType_0::SimdFloatMultAcc            0      0.00%     69.88% # Class of committed instruction (Count)
system.cpu.commit.committedInstType_0::SimdFloatMatMultAcc            0      0.00%     69.88% # Class of committed instruction (Count)
system.cpu.commit.committedInstType_0::SimdFloatSqrt            0      0.00%     69.88% # Class of committed instruction (Count)
system.cpu.commit.committedInstType_0::SimdReduceAdd            0      0.00%     69.88% # Class of committed instruction (Count)
system.cpu.commit.committedInstType_0::SimdReduceAlu            0      0.00%     69.88% # Class of committed instruction (Count)
system.cpu.commit.committedInstType_0::SimdReduceCmp            0      0.00%     69.88% # Class of committed instruction (Count)
system.cpu.commit.committedInstType_0::SimdFloatReduceAdd            0      0.00%     69.88% # Class of committed instruction (Count)
system.cpu.commit.committedInstType_0::SimdFloatReduceCmp            0      0.00%     69.88% # Class of committed instruction (Count)
system.cpu.commit.committedInstType_0::SimdAes            0      0.00%     69.88% # Class of committed instruction (Count)
system.cpu.commit.committedInstType_0::SimdAesMix            0      0.00%     69.88% # Class of committed instruction (Count)
system.cpu.commit.committedInstType_0::SimdSha1Hash            0      0.00%     69.88% # Class of committed instruction (Count)
system.cpu.commit.committedInstType_0::SimdSha1Hash2            0      0.00%     69.88% # Class of committed instruction (Count)
system.cpu.commit.committedInstType_0::SimdSha256Hash            0      0.00%     69.88% # Class of committed instruction (Count)
system.cpu.commit.committedInstType_0::SimdSha256Hash2            0      0.00%     69.88% # Class of committed instruction (Count)
system.cpu.commit.committedInstType_0::SimdShaSigma2            0      0.00%     69.88% # Class of committed instruction (Count)
system.cpu.commit.committedInstType_0::SimdShaSigma3            0      0.00%     69.88% # Class of committed instruction (Count)
system.cpu.commit.committedInstType_0::SimdPredAlu            0      0.00%     69.88% # Class of committed instruction (Count)
system.cpu.commit.committedInstType_0::Matrix            0      0.00%     69.88% # Class of committed instruction (Count)
system.cpu.commit.committedInstType_0::MatrixMov            0      0.00%     69.88% # Class of committed instruction (Count)
system.cpu.commit.committedInstType_0::MatrixOP            0      0.00%     69.88% # Class of committed instruction (Count)
system.cpu.commit.committedInstType_0::MemRead     34176324     19.36%     89.25% # Class of committed instruction (Count)
system.cpu.commit.committedInstType_0::MemWrite     18977948     10.75%    100.00% # Class of committed instruction (Count)
system.cpu.commit.committedInstType_0::FloatMemRead          922      0.00%    100.00% # Class of committed instruction (Count)
system.cpu.commit.committedInstType_0::FloatMemWrite          160      0.00%    100.00% # Class of committed instruction (Count)
system.cpu.commit.committedInstType_0::IprAccess            0      0.00%    100.00% # Class of committed instruction (Count)
system.cpu.commit.committedInstType_0::InstPrefetch            0      0.00%    100.00% # Class of committed instruction (Count)
system.cpu.commit.committedInstType_0::VectorUnitStrideLoad            0      0.00%    100.00% # Class of committed instruction (Count)
system.cpu.commit.committedInstType_0::VectorUnitStrideStore            0      0.00%    100.00% # Class of committed instruction (Count)
system.cpu.commit.committedInstType_0::VectorUnitStrideMaskLoad            0      0.00%    100.00% # Class of committed instruction (Count)
system.cpu.commit.committedInstType_0::VectorUnitStrideMaskStore            0      0.00%    100.00% # Class of committed instruction (Count)
system.cpu.commit.committedInstType_0::VectorStridedLoad            0      0.00%    100.00% # Class of committed instruction (Count)
system.cpu.commit.committedInstType_0::VectorStridedStore            0      0.00%    100.00% # Class of committed instruction (Count)
system.cpu.commit.committedInstType_0::VectorIndexedLoad            0      0.00%    100.00% # Class of committed instruction (Count)
system.cpu.commit.committedInstType_0::VectorIndexedStore            0      0.00%    100.00% # Class of committed instruction (Count)
system.cpu.commit.committedInstType_0::VectorUnitStrideFaultOnlyFirstLoad            0      0.00%    100.00% # Class of committed instruction (Count)
system.cpu.commit.committedInstType_0::VectorWholeRegisterLoad            0      0.00%    100.00% # Class of committed instruction (Count)
system.cpu.commit.committedInstType_0::VectorWholeRegisterStore            0      0.00%    100.00% # Class of committed instruction (Count)
system.cpu.commit.committedInstType_0::VectorIntegerArith            0      0.00%    100.00% # Class of committed instruction (Count)
system.cpu.commit.committedInstType_0::VectorFloatArith            0      0.00%    100.00% # Class of committed instruction (Count)
system.cpu.commit.committedInstType_0::VectorFloatConvert            0      0.00%    100.00% # Class of committed instruction (Count)
system.cpu.commit.committedInstType_0::VectorIntegerReduce            0      0.00%    100.00% # Class of committed instruction (Count)
system.cpu.commit.committedInstType_0::VectorFloatReduce            0      0.00%    100.00% # Class of committed instruction (Count)
system.cpu.commit.committedInstType_0::VectorMisc            0      0.00%    100.00% # Class of committed instruction (Count)
system.cpu.commit.committedInstType_0::VectorIntegerExtension            0      0.00%    100.00% # Class of committed instruction (Count)
system.cpu.commit.committedInstType_0::VectorConfig            0      0.00%    100.00% # Class of committed instruction (Count)
system.cpu.commit.committedInstType_0::total    176495709                       # Class of committed instruction (Count)
system.cpu.commit.commitEligibleSamples       3057056                       # number cycles where commit BW limit reached (Cycle)
system.cpu.commitStats0.numInsts            103101646                       # Number of instructions committed (thread level) (Count)
system.cpu.commitStats0.numOps              176495709                       # Number of ops (including micro ops) committed (thread level) (Count)
system.cpu.commitStats0.numInstsNotNOP      103101646                       # Number of instructions committed excluding NOPs or prefetches (Count)
system.cpu.commitStats0.numOpsNotNOP        176495709                       # Number of Ops (including micro ops) Simulated (Count)
system.cpu.commitStats0.cpi                  2.314088                       # CPI: cycles per instruction (thread level) ((Cycle/Count))
system.cpu.commitStats0.ipc                  0.432136                       # IPC: instructions per cycle (thread level) ((Count/Cycle))
system.cpu.commitStats0.numMemRefs           53155354                       # Number of memory references committed (Count)
system.cpu.commitStats0.numFpInsts               9194                       # Number of float instructions (Count)
system.cpu.commitStats0.numIntInsts         174299450                       # Number of integer instructions (Count)
system.cpu.commitStats0.numLoadInsts         34177246                       # Number of load instructions (Count)
system.cpu.commitStats0.numStoreInsts        18978108                       # Number of store instructions (Count)
system.cpu.commitStats0.numVecInsts                 0                       # Number of vector instructions (Count)
system.cpu.commitStats0.committedInstType::No_OpClass          629      0.00%      0.00% # Class of committed instruction. (Count)
system.cpu.commitStats0.committedInstType::IntAlu    122511610     69.41%     69.41% # Class of committed instruction. (Count)
system.cpu.commitStats0.committedInstType::IntMult       782257      0.44%     69.86% # Class of committed instruction. (Count)
system.cpu.commitStats0.committedInstType::IntDiv        38885      0.02%     69.88% # Class of committed instruction. (Count)
system.cpu.commitStats0.committedInstType::FloatAdd          328      0.00%     69.88% # Class of committed instruction. (Count)
system.cpu.commitStats0.committedInstType::FloatCmp            0      0.00%     69.88% # Class of committed instruction. (Count)
system.cpu.commitStats0.committedInstType::FloatCvt            0      0.00%     69.88% # Class of committed instruction. (Count)
system.cpu.commitStats0.committedInstType::FloatMult            0      0.00%     69.88% # Class of committed instruction. (Count)
system.cpu.commitStats0.committedInstType::FloatMultAcc            0      0.00%     69.88% # Class of committed instruction. (Count)
system.cpu.commitStats0.committedInstType::FloatDiv            0      0.00%     69.88% # Class of committed instruction. (Count)
system.cpu.commitStats0.committedInstType::FloatMisc            0      0.00%     69.88% # Class of committed instruction. (Count)
system.cpu.commitStats0.committedInstType::FloatSqrt            0      0.00%     69.88% # Class of committed instruction. (Count)
system.cpu.commitStats0.committedInstType::SimdAdd            0      0.00%     69.88% # Class of committed instruction. (Count)
system.cpu.commitStats0.committedInstType::SimdAddAcc            0      0.00%     69.88% # Class of committed instruction. (Count)
system.cpu.commitStats0.committedInstType::SimdAlu         1602      0.00%     69.88% # Class of committed instruction. (Count)
system.cpu.commitStats0.committedInstType::SimdCmp            0      0.00%     69.88% # Class of committed instruction. (Count)
system.cpu.commitStats0.committedInstType::SimdCvt         1814      0.00%     69.88% # Class of committed instruction. (Count)
system.cpu.commitStats0.committedInstType::SimdMisc         3230      0.00%     69.88% # Class of committed instruction. (Count)
system.cpu.commitStats0.committedInstType::SimdMult            0      0.00%     69.88% # Class of committed instruction. (Count)
system.cpu.commitStats0.committedInstType::SimdMultAcc            0      0.00%     69.88% # Class of committed instruction. (Count)
system.cpu.commitStats0.committedInstType::SimdMatMultAcc            0      0.00%     69.88% # Class of committed instruction. (Count)
system.cpu.commitStats0.committedInstType::SimdShift            0      0.00%     69.88% # Class of committed instruction. (Count)
system.cpu.commitStats0.committedInstType::SimdShiftAcc            0      0.00%     69.88% # Class of committed instruction. (Count)
system.cpu.commitStats0.committedInstType::SimdDiv            0      0.00%     69.88% # Class of committed instruction. (Count)
system.cpu.commitStats0.committedInstType::SimdSqrt            0      0.00%     69.88% # Class of committed instruction. (Count)
system.cpu.commitStats0.committedInstType::SimdFloatAdd            0      0.00%     69.88% # Class of committed instruction. (Count)
system.cpu.commitStats0.committedInstType::SimdFloatAlu            0      0.00%     69.88% # Class of committed instruction. (Count)
system.cpu.commitStats0.committedInstType::SimdFloatCmp            0      0.00%     69.88% # Class of committed instruction. (Count)
system.cpu.commitStats0.committedInstType::SimdFloatCvt            0      0.00%     69.88% # Class of committed instruction. (Count)
system.cpu.commitStats0.committedInstType::SimdFloatDiv            0      0.00%     69.88% # Class of committed instruction. (Count)
system.cpu.commitStats0.committedInstType::SimdFloatMisc            0      0.00%     69.88% # Class of committed instruction. (Count)
system.cpu.commitStats0.committedInstType::SimdFloatMult            0      0.00%     69.88% # Class of committed instruction. (Count)
system.cpu.commitStats0.committedInstType::SimdFloatMultAcc            0      0.00%     69.88% # Class of committed instruction. (Count)
system.cpu.commitStats0.committedInstType::SimdFloatMatMultAcc            0      0.00%     69.88% # Class of committed instruction. (Count)
system.cpu.commitStats0.committedInstType::SimdFloatSqrt            0      0.00%     69.88% # Class of committed instruction. (Count)
system.cpu.commitStats0.committedInstType::SimdReduceAdd            0      0.00%     69.88% # Class of committed instruction. (Count)
system.cpu.commitStats0.committedInstType::SimdReduceAlu            0      0.00%     69.88% # Class of committed instruction. (Count)
system.cpu.commitStats0.committedInstType::SimdReduceCmp            0      0.00%     69.88% # Class of committed instruction. (Count)
system.cpu.commitStats0.committedInstType::SimdFloatReduceAdd            0      0.00%     69.88% # Class of committed instruction. (Count)
system.cpu.commitStats0.committedInstType::SimdFloatReduceCmp            0      0.00%     69.88% # Class of committed instruction. (Count)
system.cpu.commitStats0.committedInstType::SimdAes            0      0.00%     69.88% # Class of committed instruction. (Count)
system.cpu.commitStats0.committedInstType::SimdAesMix            0      0.00%     69.88% # Class of committed instruction. (Count)
system.cpu.commitStats0.committedInstType::SimdSha1Hash            0      0.00%     69.88% # Class of committed instruction. (Count)
system.cpu.commitStats0.committedInstType::SimdSha1Hash2            0      0.00%     69.88% # Class of committed instruction. (Count)
system.cpu.commitStats0.committedInstType::SimdSha256Hash            0      0.00%     69.88% # Class of committed instruction. (Count)
system.cpu.commitStats0.committedInstType::SimdSha256Hash2            0      0.00%     69.88% # Class of committed instruction. (Count)
system.cpu.commitStats0.committedInstType::SimdShaSigma2            0      0.00%     69.88% # Class of committed instruction. (Count)
system.cpu.commitStats0.committedInstType::SimdShaSigma3            0      0.00%     69.88% # Class of committed instruction. (Count)
system.cpu.commitStats0.committedInstType::SimdPredAlu            0      0.00%     69.88% # Class of committed instruction. (Count)
system.cpu.commitStats0.committedInstType::Matrix            0      0.00%     69.88% # Class of committed instruction. (Count)
system.cpu.commitStats0.committedInstType::MatrixMov            0      0.00%     69.88% # Class of committed instruction. (Count)
system.cpu.commitStats0.committedInstType::MatrixOP            0      0.00%     69.88% # Class of committed instruction. (Count)
system.cpu.commitStats0.committedInstType::MemRead     34176324     19.36%     89.25% # Class of committed instruction. (Count)
system.cpu.commitStats0.committedInstType::MemWrite     18977948     10.75%    100.00% # Class of committed instruction. (Count)
system.cpu.commitStats0.committedInstType::FloatMemRead          922      0.00%    100.00% # Class of committed instruction. (Count)
system.cpu.commitStats0.committedInstType::FloatMemWrite          160      0.00%    100.00% # Class of committed instruction. (Count)
system.cpu.commitStats0.committedInstType::IprAccess            0      0.00%    100.00% # Class of committed instruction. (Count)
system.cpu.commitStats0.committedInstType::InstPrefetch            0      0.00%    100.00% # Class of committed instruction. (Count)
system.cpu.commitStats0.committedInstType::VectorUnitStrideLoad            0      0.00%    100.00% # Class of committed instruction. (Count)
system.cpu.commitStats0.committedInstType::VectorUnitStrideStore            0      0.00%    100.00% # Class of committed instruction. (Count)
system.cpu.commitStats0.committedInstType::VectorUnitStrideMaskLoad            0      0.00%    100.00% # Class of committed instruction. (Count)
system.cpu.commitStats0.committedInstType::VectorUnitStrideMaskStore            0      0.00%    100.00% # Class of committed instruction. (Count)
system.cpu.commitStats0.committedInstType::VectorStridedLoad            0      0.00%    100.00% # Class of committed instruction. (Count)
system.cpu.commitStats0.committedInstType::VectorStridedStore            0      0.00%    100.00% # Class of committed instruction. (Count)
system.cpu.commitStats0.committedInstType::VectorIndexedLoad            0      0.00%    100.00% # Class of committed instruction. (Count)
system.cpu.commitStats0.committedInstType::VectorIndexedStore            0      0.00%    100.00% # Class of committed instruction. (Count)
system.cpu.commitStats0.committedInstType::VectorUnitStrideFaultOnlyFirstLoad            0      0.00%    100.00% # Class of committed instruction. (Count)
system.cpu.commitStats0.committedInstType::VectorWholeRegisterLoad            0      0.00%    100.00% # Class of committed instruction. (Count)
system.cpu.commitStats0.committedInstType::VectorWholeRegisterStore            0      0.00%    100.00% # Class of committed instruction. (Count)
system.cpu.commitStats0.committedInstType::VectorIntegerArith            0      0.00%    100.00% # Class of committed instruction. (Count)
system.cpu.commitStats0.committedInstType::VectorFloatArith            0      0.00%    100.00% # Class of committed instruction. (Count)
system.cpu.commitStats0.committedInstType::VectorFloatConvert            0      0.00%    100.00% # Class of committed instruction. (Count)
system.cpu.commitStats0.committedInstType::VectorIntegerReduce            0      0.00%    100.00% # Class of committed instruction. (Count)
system.cpu.commitStats0.committedInstType::VectorFloatReduce            0      0.00%    100.00% # Class of committed instruction. (Count)
system.cpu.commitStats0.committedInstType::VectorMisc            0      0.00%    100.00% # Class of committed instruction. (Count)
system.cpu.commitStats0.committedInstType::VectorIntegerExtension            0      0.00%    100.00% # Class of committed instruction. (Count)
system.cpu.commitStats0.committedInstType::VectorConfig            0      0.00%    100.00% # Class of committed instruction. (Count)
system.cpu.commitStats0.committedInstType::total    176495709                       # Class of committed instruction. (Count)
system.cpu.commitStats0.committedControl::IsControl     14051858                       # Class of control type instructions committed (Count)
system.cpu.commitStats0.committedControl::IsDirectControl     13966659                       # Class of control type instructions committed (Count)
system.cpu.commitStats0.committedControl::IsIndirectControl        85199                       # Class of control type instructions committed (Count)
system.cpu.commitStats0.committedControl::IsCondControl     13332879                       # Class of control type instructions committed (Count)
system.cpu.commitStats0.committedControl::IsUncondControl       718979                       # Class of control type instructions committed (Count)
system.cpu.commitStats0.committedControl::IsCall        84180                       # Class of control type instructions committed (Count)
system.cpu.commitStats0.committedControl::IsReturn        84175                       # Class of control type instructions committed (Count)
system.cpu.dcache.demandHits::cpu.data       28879290                       # number of demand (read+write) hits (Count)
system.cpu.dcache.demandHits::total          28879290                       # number of demand (read+write) hits (Count)
system.cpu.dcache.overallHits::cpu.data      28879290                       # number of overall hits (Count)
system.cpu.dcache.overallHits::total         28879290                       # number of overall hits (Count)
system.cpu.dcache.demandMisses::cpu.data       834245                       # number of demand (read+write) misses (Count)
system.cpu.dcache.demandMisses::total          834245                       # number of demand (read+write) misses (Count)
system.cpu.dcache.overallMisses::cpu.data       834245                       # number of overall misses (Count)
system.cpu.dcache.overallMisses::total         834245                       # number of overall misses (Count)
system.cpu.dcache.demandMissLatency::cpu.data  80602214999                       # number of demand (read+write) miss ticks (Tick)
system.cpu.dcache.demandMissLatency::total  80602214999                       # number of demand (read+write) miss ticks (Tick)
system.cpu.dcache.overallMissLatency::cpu.data  80602214999                       # number of overall miss ticks (Tick)
system.cpu.dcache.overallMissLatency::total  80602214999                       # number of overall miss ticks (Tick)
system.cpu.dcache.demandAccesses::cpu.data     29713535                       # number of demand (read+write) accesses (Count)
system.cpu.dcache.demandAccesses::total      29713535                       # number of demand (read+write) accesses (Count)
system.cpu.dcache.overallAccesses::cpu.data     29713535                       # number of overall (read+write) accesses (Count)
system.cpu.dcache.overallAccesses::total     29713535                       # number of overall (read+write) accesses (Count)
system.cpu.dcache.demandMissRate::cpu.data     0.028076                       # miss rate for demand accesses (Ratio)
system.cpu.dcache.demandMissRate::total      0.028076                       # miss rate for demand accesses (Ratio)
system.cpu.dcache.overallMissRate::cpu.data     0.028076                       # miss rate for overall accesses (Ratio)
system.cpu.dcache.overallMissRate::total     0.028076                       # miss rate for overall accesses (Ratio)
system.cpu.dcache.demandAvgMissLatency::cpu.data 96616.959046                       # average overall miss latency in ticks ((Tick/Count))
system.cpu.dcache.demandAvgMissLatency::total 96616.959046                       # average overall miss latency in ticks ((Tick/Count))
system.cpu.dcache.overallAvgMissLatency::cpu.data 96616.959046                       # average overall miss latency ((Tick/Count))
system.cpu.dcache.overallAvgMissLatency::total 96616.959046                       # average overall miss latency ((Tick/Count))
system.cpu.dcache.blockedCycles::no_mshrs          414                       # number of cycles access was blocked (Cycle)
system.cpu.dcache.blockedCycles::no_targets            1                       # number of cycles access was blocked (Cycle)
system.cpu.dcache.blockedCauses::no_mshrs           10                       # number of times access was blocked (Count)
system.cpu.dcache.blockedCauses::no_targets            1                       # number of times access was blocked (Count)
system.cpu.dcache.avgBlocked::no_mshrs      41.400000                       # average number of cycles each access was blocked ((Cycle/Count))
system.cpu.dcache.avgBlocked::no_targets            1                       # average number of cycles each access was blocked ((Cycle/Count))
system.cpu.dcache.writebacks::writebacks         9656                       # number of writebacks (Count)
system.cpu.dcache.writebacks::total              9656                       # number of writebacks (Count)
system.cpu.dcache.demandMshrHits::cpu.data        36909                       # number of demand (read+write) MSHR hits (Count)
system.cpu.dcache.demandMshrHits::total         36909                       # number of demand (read+write) MSHR hits (Count)
system.cpu.dcache.overallMshrHits::cpu.data        36909                       # number of overall MSHR hits (Count)
system.cpu.dcache.overallMshrHits::total        36909                       # number of overall MSHR hits (Count)
system.cpu.dcache.demandMshrMisses::cpu.data       797336                       # number of demand (read+write) MSHR misses (Count)
system.cpu.dcache.demandMshrMisses::total       797336                       # number of demand (read+write) MSHR misses (Count)
system.cpu.dcache.overallMshrMisses::cpu.data       797336                       # number of overall MSHR misses (Count)
system.cpu.dcache.overallMshrMisses::total       797336                       # number of overall MSHR misses (Count)
system.cpu.dcache.demandMshrMissLatency::cpu.data  78478937000                       # number of demand (read+write) MSHR miss ticks (Tick)
system.cpu.dcache.demandMshrMissLatency::total  78478937000                       # number of demand (read+write) MSHR miss ticks (Tick)
system.cpu.dcache.overallMshrMissLatency::cpu.data  78478937000                       # number of overall MSHR miss ticks (Tick)
system.cpu.dcache.overallMshrMissLatency::total  78478937000                       # number of overall MSHR miss ticks (Tick)
system.cpu.dcache.demandMshrMissRate::cpu.data     0.026834                       # mshr miss ratio for demand accesses (Ratio)
system.cpu.dcache.demandMshrMissRate::total     0.026834                       # mshr miss ratio for demand accesses (Ratio)
system.cpu.dcache.overallMshrMissRate::cpu.data     0.026834                       # mshr miss ratio for overall accesses (Ratio)
system.cpu.dcache.overallMshrMissRate::total     0.026834                       # mshr miss ratio for overall accesses (Ratio)
system.cpu.dcache.demandAvgMshrMissLatency::cpu.data 98426.431266                       # average overall mshr miss latency ((Tick/Count))
system.cpu.dcache.demandAvgMshrMissLatency::total 98426.431266                       # average overall mshr miss latency ((Tick/Count))
system.cpu.dcache.overallAvgMshrMissLatency::cpu.data 98426.431266                       # average overall mshr miss latency ((Tick/Count))
system.cpu.dcache.overallAvgMshrMissLatency::total 98426.431266                       # average overall mshr miss latency ((Tick/Count))
system.cpu.dcache.replacements                 376312                       # number of replacements (Count)
system.cpu.dcache.CleanInvalidReq.missLatency::cpu.data  22680575000                       # number of CleanInvalidReq miss ticks (Tick)
system.cpu.dcache.CleanInvalidReq.missLatency::total  22680575000                       # number of CleanInvalidReq miss ticks (Tick)
system.cpu.dcache.CleanInvalidReq.avgMissLatency::cpu.data          inf                       # average CleanInvalidReq miss latency ((Tick/Count))
system.cpu.dcache.CleanInvalidReq.avgMissLatency::total          inf                       # average CleanInvalidReq miss latency ((Tick/Count))
system.cpu.dcache.CleanInvalidReq.mshrMisses::cpu.data       782210                       # number of CleanInvalidReq MSHR misses (Count)
system.cpu.dcache.CleanInvalidReq.mshrMisses::total       782210                       # number of CleanInvalidReq MSHR misses (Count)
system.cpu.dcache.CleanInvalidReq.mshrMissLatency::cpu.data  40675495000                       # number of CleanInvalidReq MSHR miss ticks (Tick)
system.cpu.dcache.CleanInvalidReq.mshrMissLatency::total  40675495000                       # number of CleanInvalidReq MSHR miss ticks (Tick)
system.cpu.dcache.CleanInvalidReq.mshrMissRate::cpu.data          inf                       # mshr miss rate for CleanInvalidReq accesses (Ratio)
system.cpu.dcache.CleanInvalidReq.mshrMissRate::total          inf                       # mshr miss rate for CleanInvalidReq accesses (Ratio)
system.cpu.dcache.CleanInvalidReq.avgMshrMissLatency::cpu.data 52000.735097                       # average CleanInvalidReq mshr miss latency ((Tick/Count))
system.cpu.dcache.CleanInvalidReq.avgMshrMissLatency::total 52000.735097                       # average CleanInvalidReq mshr miss latency ((Tick/Count))
system.cpu.dcache.ReadReq.hits::cpu.data     10685619                       # number of ReadReq hits (Count)
system.cpu.dcache.ReadReq.hits::total        10685619                       # number of ReadReq hits (Count)
system.cpu.dcache.ReadReq.misses::cpu.data       831978                       # number of ReadReq misses (Count)
system.cpu.dcache.ReadReq.misses::total        831978                       # number of ReadReq misses (Count)
system.cpu.dcache.ReadReq.missLatency::cpu.data  80381281000                       # number of ReadReq miss ticks (Tick)
system.cpu.dcache.ReadReq.missLatency::total  80381281000                       # number of ReadReq miss ticks (Tick)
system.cpu.dcache.ReadReq.accesses::cpu.data     11517597                       # number of ReadReq accesses(hits+misses) (Count)
system.cpu.dcache.ReadReq.accesses::total     11517597                       # number of ReadReq accesses(hits+misses) (Count)
system.cpu.dcache.ReadReq.missRate::cpu.data     0.072235                       # miss rate for ReadReq accesses (Ratio)
system.cpu.dcache.ReadReq.missRate::total     0.072235                       # miss rate for ReadReq accesses (Ratio)
system.cpu.dcache.ReadReq.avgMissLatency::cpu.data 96614.671301                       # average ReadReq miss latency ((Tick/Count))
system.cpu.dcache.ReadReq.avgMissLatency::total 96614.671301                       # average ReadReq miss latency ((Tick/Count))
system.cpu.dcache.ReadReq.mshrHits::cpu.data        36907                       # number of ReadReq MSHR hits (Count)
system.cpu.dcache.ReadReq.mshrHits::total        36907                       # number of ReadReq MSHR hits (Count)
system.cpu.dcache.ReadReq.mshrMisses::cpu.data       795071                       # number of ReadReq MSHR misses (Count)
system.cpu.dcache.ReadReq.mshrMisses::total       795071                       # number of ReadReq MSHR misses (Count)
system.cpu.dcache.ReadReq.mshrMissLatency::cpu.data  78262707000                       # number of ReadReq MSHR miss ticks (Tick)
system.cpu.dcache.ReadReq.mshrMissLatency::total  78262707000                       # number of ReadReq MSHR miss ticks (Tick)
system.cpu.dcache.ReadReq.mshrMissRate::cpu.data     0.069031                       # mshr miss rate for ReadReq accesses (Ratio)
system.cpu.dcache.ReadReq.mshrMissRate::total     0.069031                       # mshr miss rate for ReadReq accesses (Ratio)
system.cpu.dcache.ReadReq.avgMshrMissLatency::cpu.data 98434.865565                       # average ReadReq mshr miss latency ((Tick/Count))
system.cpu.dcache.ReadReq.avgMshrMissLatency::total 98434.865565                       # average ReadReq mshr miss latency ((Tick/Count))
system.cpu.dcache.WriteReq.hits::cpu.data     18193671                       # number of WriteReq hits (Count)
system.cpu.dcache.WriteReq.hits::total       18193671                       # number of WriteReq hits (Count)
system.cpu.dcache.WriteReq.misses::cpu.data         2267                       # number of WriteReq misses (Count)
system.cpu.dcache.WriteReq.misses::total         2267                       # number of WriteReq misses (Count)
system.cpu.dcache.WriteReq.missLatency::cpu.data    220933999                       # number of WriteReq miss ticks (Tick)
system.cpu.dcache.WriteReq.missLatency::total    220933999                       # number of WriteReq miss ticks (Tick)
system.cpu.dcache.WriteReq.accesses::cpu.data     18195938                       # number of WriteReq accesses(hits+misses) (Count)
system.cpu.dcache.WriteReq.accesses::total     18195938                       # number of WriteReq accesses(hits+misses) (Count)
system.cpu.dcache.WriteReq.missRate::cpu.data     0.000125                       # miss rate for WriteReq accesses (Ratio)
system.cpu.dcache.WriteReq.missRate::total     0.000125                       # miss rate for WriteReq accesses (Ratio)
system.cpu.dcache.WriteReq.avgMissLatency::cpu.data 97456.550066                       # average WriteReq miss latency ((Tick/Count))
system.cpu.dcache.WriteReq.avgMissLatency::total 97456.550066                       # average WriteReq miss latency ((Tick/Count))
system.cpu.dcache.WriteReq.mshrHits::cpu.data            2                       # number of WriteReq MSHR hits (Count)
system.cpu.dcache.WriteReq.mshrHits::total            2                       # number of WriteReq MSHR hits (Count)
system.cpu.dcache.WriteReq.mshrMisses::cpu.data         2265                       # number of WriteReq MSHR misses (Count)
system.cpu.dcache.WriteReq.mshrMisses::total         2265                       # number of WriteReq MSHR misses (Count)
system.cpu.dcache.WriteReq.mshrMissLatency::cpu.data    216230000                       # number of WriteReq MSHR miss ticks (Tick)
system.cpu.dcache.WriteReq.mshrMissLatency::total    216230000                       # number of WriteReq MSHR miss ticks (Tick)
system.cpu.dcache.WriteReq.mshrMissRate::cpu.data     0.000124                       # mshr miss rate for WriteReq accesses (Ratio)
system.cpu.dcache.WriteReq.mshrMissRate::total     0.000124                       # mshr miss rate for WriteReq accesses (Ratio)
system.cpu.dcache.WriteReq.avgMshrMissLatency::cpu.data 95465.783664                       # average WriteReq mshr miss latency ((Tick/Count))
system.cpu.dcache.WriteReq.avgMshrMissLatency::total 95465.783664                       # average WriteReq mshr miss latency ((Tick/Count))
system.cpu.dcache.power_state.pwrStateResidencyTicks::UNDEFINED 238586269000                       # Cumulative time (in ticks) in various power states (Tick)
system.cpu.dcache.tags.tagsInUse           965.485638                       # Average ticks per tags in use ((Tick/Count))
system.cpu.dcache.tags.totalRefs             30096626                       # Total number of references to valid blocks. (Count)
system.cpu.dcache.tags.sampledRefs             797336                       # Sample count of references to valid blocks. (Count)
system.cpu.dcache.tags.avgRefs              37.746478                       # Average number of references to valid blocks. ((Count/Count))
system.cpu.dcache.tags.warmupTick              222000                       # The tick when the warmup percentage was hit. (Tick)
system.cpu.dcache.tags.occupancies::cpu.data   965.485638                       # Average occupied blocks per tick, per requestor ((Count/Tick))
system.cpu.dcache.tags.avgOccs::cpu.data     0.942857                       # Average percentage of cache occupancy ((Ratio/Tick))
system.cpu.dcache.tags.avgOccs::total        0.942857                       # Average percentage of cache occupancy ((Ratio/Tick))
system.cpu.dcache.tags.occupanciesTaskId::1024         1024                       # Occupied blocks per task id (Count)
system.cpu.dcache.tags.ageTaskId_1024::0           43                       # Occupied blocks per task id, per block age (Count)
system.cpu.dcache.tags.ageTaskId_1024::1          105                       # Occupied blocks per task id, per block age (Count)
system.cpu.dcache.tags.ageTaskId_1024::4          876                       # Occupied blocks per task id, per block age (Count)
system.cpu.dcache.tags.ratioOccsTaskId::1024            1                       # Ratio of occupied blocks and all blocks, per task id (Ratio)
system.cpu.dcache.tags.tagAccesses           61788826                       # Number of tag accesses (Count)
system.cpu.dcache.tags.dataAccesses          61788826                       # Number of data accesses (Count)
system.cpu.dcache.tags.power_state.pwrStateResidencyTicks::UNDEFINED 238586269000                       # Cumulative time (in ticks) in various power states (Tick)
[...]
system.mem_ctrl.dram.numReads::cpu.data        784501                       # Number of read requests responded to by this memory (Count)
system.mem_ctrl.dram.numReads::total           785072                       # Number of read requests responded to by this memory (Count)
system.mem_ctrl.dram.numWrites::writebacks          259                       # Number of write requests responded to by this memory (Count)
system.mem_ctrl.dram.numWrites::total             259                       # Number of write requests responded to by this memory (Count)
system.mem_ctrl.dram.bwRead::cpu.inst          153169                       # Total read bandwidth from this memory ((Byte/Second))
system.mem_ctrl.dram.bwRead::cpu.data       210439872                       # Total read bandwidth from this memory ((Byte/Second))
system.mem_ctrl.dram.bwRead::total          210593041                       # Total read bandwidth from this memory ((Byte/Second))
system.mem_ctrl.dram.bwInstRead::cpu.inst       153169                       # Instruction read bandwidth from this memory ((Byte/Second))
system.mem_ctrl.dram.bwInstRead::total         153169                       # Instruction read bandwidth from this memory ((Byte/Second))
system.mem_ctrl.dram.bwWrite::writebacks        69476                       # Write bandwidth from this memory ((Byte/Second))
system.mem_ctrl.dram.bwWrite::total             69476                       # Write bandwidth from this memory ((Byte/Second))
system.mem_ctrl.dram.bwTotal::writebacks        69476                       # Total bandwidth to/from this memory ((Byte/Second))
system.mem_ctrl.dram.bwTotal::cpu.inst         153169                       # Total bandwidth to/from this memory ((Byte/Second))
system.mem_ctrl.dram.bwTotal::cpu.data      210439872                       # Total bandwidth to/from this memory ((Byte/Second))
system.mem_ctrl.dram.bwTotal::total         210662517                       # Total bandwidth to/from this memory ((Byte/Second))
system.mem_ctrl.dram.readBursts                733107                       # Number of DRAM read bursts (Count)
system.mem_ctrl.dram.writeBursts                  237                       # Number of DRAM write bursts (Count)
system.mem_ctrl.dram.perBankRdBursts::0         43976                       # Per bank write bursts (Count)
system.mem_ctrl.dram.perBankRdBursts::1         43927                       # Per bank write bursts (Count)
system.mem_ctrl.dram.perBankRdBursts::2         43935                       # Per bank write bursts (Count)
system.mem_ctrl.dram.perBankRdBursts::3         43904                       # Per bank write bursts (Count)
system.mem_ctrl.dram.perBankRdBursts::4         43888                       # Per bank write bursts (Count)
system.mem_ctrl.dram.perBankRdBursts::5         43902                       # Per bank write bursts (Count)
system.mem_ctrl.dram.perBankRdBursts::6         98693                       # Per bank write bursts (Count)
system.mem_ctrl.dram.perBankRdBursts::7         19332                       # Per bank write bursts (Count)
system.mem_ctrl.dram.perBankRdBursts::8         43932                       # Per bank write bursts (Count)
system.mem_ctrl.dram.perBankRdBursts::9         43947                       # Per bank write bursts (Count)
system.mem_ctrl.dram.perBankRdBursts::10        43991                       # Per bank write bursts (Count)
system.mem_ctrl.dram.perBankRdBursts::11        43971                       # Per bank write bursts (Count)
system.mem_ctrl.dram.perBankRdBursts::12        43913                       # Per bank write bursts (Count)
system.mem_ctrl.dram.perBankRdBursts::13        43941                       # Per bank write bursts (Count)
system.mem_ctrl.dram.perBankRdBursts::14        43915                       # Per bank write bursts (Count)
system.mem_ctrl.dram.perBankRdBursts::15        43940                       # Per bank write bursts (Count)
system.mem_ctrl.dram.perBankWrBursts::0            16                       # Per bank write bursts (Count)
system.mem_ctrl.dram.perBankWrBursts::1            16                       # Per bank write bursts (Count)
system.mem_ctrl.dram.perBankWrBursts::2            16                       # Per bank write bursts (Count)
system.mem_ctrl.dram.perBankWrBursts::3            16                       # Per bank write bursts (Count)
system.mem_ctrl.dram.perBankWrBursts::4            16                       # Per bank write bursts (Count)
system.mem_ctrl.dram.perBankWrBursts::5            16                       # Per bank write bursts (Count)
system.mem_ctrl.dram.perBankWrBursts::6             6                       # Per bank write bursts (Count)
system.mem_ctrl.dram.perBankWrBursts::7             7                       # Per bank write bursts (Count)
system.mem_ctrl.dram.perBankWrBursts::8            16                       # Per bank write bursts (Count)
system.mem_ctrl.dram.perBankWrBursts::9            16                       # Per bank write bursts (Count)
system.mem_ctrl.dram.perBankWrBursts::10           16                       # Per bank write bursts (Count)
system.mem_ctrl.dram.perBankWrBursts::11           16                       # Per bank write bursts (Count)
system.mem_ctrl.dram.perBankWrBursts::12           16                       # Per bank write bursts (Count)
system.mem_ctrl.dram.perBankWrBursts::13           16                       # Per bank write bursts (Count)
system.mem_ctrl.dram.perBankWrBursts::14           16                       # Per bank write bursts (Count)
system.mem_ctrl.dram.perBankWrBursts::15           16                       # Per bank write bursts (Count)
system.mem_ctrl.dram.totQLat               6662539250                       # Total ticks spent queuing (Tick)
system.mem_ctrl.dram.totBusLat             3665535000                       # Total ticks spent in databus transfers (Tick)
system.mem_ctrl.dram.totMemAccLat         20408295500                       # Total ticks spent from burst creation until serviced by the DRAM (Tick)
system.mem_ctrl.dram.avgQLat                  9088.09                       # Average queueing delay per DRAM burst ((Tick/Count))
system.mem_ctrl.dram.avgBusLat                5000.00                       # Average bus latency per DRAM burst ((Tick/Count))
system.mem_ctrl.dram.avgMemAccLat            27838.09                       # Average memory access latency per DRAM burst ((Tick/Count))
system.mem_ctrl.dram.readRowHits               477128                       # Number of row buffer hits during reads (Count)
system.mem_ctrl.dram.writeRowHits                 219                       # Number of row buffer hits during writes (Count)
system.mem_ctrl.dram.readRowHitRate             65.08                       # Row buffer hit rate for reads (Ratio)
system.mem_ctrl.dram.writeRowHitRate            92.41                       # Row buffer hit rate for writes (Ratio)
system.mem_ctrl.dram.bytesPerActivate::samples       255991                       # Bytes accessed per row activation (Byte)
system.mem_ctrl.dram.bytesPerActivate::mean   183.337195                       # Bytes accessed per row activation (Byte)
system.mem_ctrl.dram.bytesPerActivate::gmean   158.337956                       # Bytes accessed per row activation (Byte)
system.mem_ctrl.dram.bytesPerActivate::stdev   115.915880                       # Bytes accessed per row activation (Byte)
system.mem_ctrl.dram.bytesPerActivate::0-127        37702     14.73%     14.73% # Bytes accessed per row activation (Byte)
system.mem_ctrl.dram.bytesPerActivate::128-255       142041     55.49%     70.21% # Bytes accessed per row activation (Byte)
system.mem_ctrl.dram.bytesPerActivate::256-383        69095     26.99%     97.21% # Bytes accessed per row activation (Byte)
system.mem_ctrl.dram.bytesPerActivate::384-511          981      0.38%     97.59% # Bytes accessed per row activation (Byte)
system.mem_ctrl.dram.bytesPerActivate::512-639          924      0.36%     97.95% # Bytes accessed per row activation (Byte)
system.mem_ctrl.dram.bytesPerActivate::640-767          904      0.35%     98.30% # Bytes accessed per row activation (Byte)
system.mem_ctrl.dram.bytesPerActivate::768-895         4231      1.65%     99.96% # Bytes accessed per row activation (Byte)
system.mem_ctrl.dram.bytesPerActivate::896-1023            7      0.00%     99.96% # Bytes accessed per row activation (Byte)
system.mem_ctrl.dram.bytesPerActivate::1024-1151          106      0.04%    100.00% # Bytes accessed per row activation (Byte)
system.mem_ctrl.dram.bytesPerActivate::total       255991                       # Bytes accessed per row activation (Byte)
system.mem_ctrl.dram.bytesRead               46918848                       # Total bytes read (Byte)
system.mem_ctrl.dram.bytesWritten               15168                       # Total bytes written (Byte)
system.mem_ctrl.dram.avgRdBW               196.653597                       # Average DRAM read bandwidth in MiBytes/s ((Byte/Second))
system.mem_ctrl.dram.avgWrBW                 0.063574                       # Average DRAM write bandwidth in MiBytes/s ((Byte/Second))
system.mem_ctrl.dram.peakBW                  12800.00                       # Theoretical peak bandwidth in MiByte/s ((Byte/Second))
system.mem_ctrl.dram.busUtil                     1.54                       # Data bus utilization in percentage (Ratio)
system.mem_ctrl.dram.busUtilRead                 1.54                       # Data bus utilization in percentage for reads (Ratio)
system.mem_ctrl.dram.busUtilWrite                0.00                       # Data bus utilization in percentage for writes (Ratio)
system.mem_ctrl.dram.pageHitRate                65.09                       # Row buffer hit rate, read and write combined (Ratio)
system.mem_ctrl.dram.power_state.pwrStateResidencyTicks::UNDEFINED 238586269000                       # Cumulative time (in ticks) in various power states (Tick)
system.mem_ctrl.dram.rank0.actEnergy        907865280                       # Energy for activate commands per rank (pJ) (Joule)
system.mem_ctrl.dram.rank0.preEnergy        482526660                       # Energy for precharge commands per rank (pJ) (Joule)
system.mem_ctrl.dram.rank0.readEnergy      2724316980                       # Energy for read commands per rank (pJ) (Joule)
system.mem_ctrl.dram.rank0.writeEnergy         568980                       # Energy for write commands per rank (pJ) (Joule)
system.mem_ctrl.dram.rank0.refreshEnergy 18833184240.000004                       # Energy for refresh commands per rank (pJ) (Joule)
system.mem_ctrl.dram.rank0.actBackEnergy  78306969360                       # Energy for active background per rank (pJ) (Joule)
system.mem_ctrl.dram.rank0.preBackEnergy  25674416640                       # Energy for precharge background per rank (pJ) (Joule)
system.mem_ctrl.dram.rank0.actPowerDownEnergy            0                       # Energy for active power-down per rank (pJ) (Joule)
system.mem_ctrl.dram.rank0.prePowerDownEnergy            0                       # Energy for precharge power-down per rank (pJ) (Joule)
system.mem_ctrl.dram.rank0.selfRefreshEnergy            0                       # Energy for self refresh per rank (pJ) (Joule)
system.mem_ctrl.dram.rank0.totalEnergy   126929848140                       # Total energy per rank (pJ) (Joule)
system.mem_ctrl.dram.rank0.averagePower    532.008186                       # Core power per rank (mW) (Watt)
system.mem_ctrl.dram.rank0.totalIdleTime            0                       # Total Idle time Per DRAM Rank (Tick)
system.mem_ctrl.dram.rank0.pwrStateTime::IDLE  66107726000                       # Time in different power states (Tick)
system.mem_ctrl.dram.rank0.pwrStateTime::REF   7966660000                       # Time in different power states (Tick)
system.mem_ctrl.dram.rank0.pwrStateTime::SREF            0                       # Time in different power states (Tick)
system.mem_ctrl.dram.rank0.pwrStateTime::PRE_PDN            0                       # Time in different power states (Tick)
system.mem_ctrl.dram.rank0.pwrStateTime::ACT 164511883000                       # Time in different power states (Tick)
system.mem_ctrl.dram.rank0.pwrStateTime::ACT_PDN            0                       # Time in different power states (Tick)
system.mem_ctrl.dram.rank1.actEnergy        919953300                       # Energy for activate commands per rank (pJ) (Joule)
system.mem_ctrl.dram.rank1.preEnergy        488959185                       # Energy for precharge commands per rank (pJ) (Joule)
system.mem_ctrl.dram.rank1.readEnergy      2510067000                       # Energy for read commands per rank (pJ) (Joule)
system.mem_ctrl.dram.rank1.writeEnergy         668160                       # Energy for write commands per rank (pJ) (Joule)
system.mem_ctrl.dram.rank1.refreshEnergy 18833184240.000004                       # Energy for refresh commands per rank (pJ) (Joule)
system.mem_ctrl.dram.rank1.actBackEnergy  59886151110                       # Energy for active background per rank (pJ) (Joule)
system.mem_ctrl.dram.rank1.preBackEnergy  41186684640                       # Energy for precharge background per rank (pJ) (Joule)
system.mem_ctrl.dram.rank1.actPowerDownEnergy            0                       # Energy for active power-down per rank (pJ) (Joule)
system.mem_ctrl.dram.rank1.prePowerDownEnergy            0                       # Energy for precharge power-down per rank (pJ) (Joule)
system.mem_ctrl.dram.rank1.selfRefreshEnergy            0                       # Energy for self refresh per rank (pJ) (Joule)
system.mem_ctrl.dram.rank1.totalEnergy   123825667635                       # Total energy per rank (pJ) (Joule)
system.mem_ctrl.dram.rank1.averagePower    518.997460                       # Core power per rank (mW) (Watt)
system.mem_ctrl.dram.rank1.totalIdleTime            0                       # Total Idle time Per DRAM Rank (Tick)
system.mem_ctrl.dram.rank1.pwrStateTime::IDLE 106570518500                       # Time in different power states (Tick)
system.mem_ctrl.dram.rank1.pwrStateTime::REF   7966660000                       # Time in different power states (Tick)
system.mem_ctrl.dram.rank1.pwrStateTime::SREF            0                       # Time in different power states (Tick)
system.mem_ctrl.dram.rank1.pwrStateTime::PRE_PDN            0                       # Time in different power states (Tick)
system.mem_ctrl.dram.rank1.pwrStateTime::ACT 124049090500                       # Time in different power states (Tick)
system.mem_ctrl.dram.rank1.pwrStateTime::ACT_PDN            0                       # Time in different power states (Tick)
system.mem_ctrl.power_state.pwrStateResidencyTicks::UNDEFINED 238586269000                       # Cumulative time (in ticks) in various power states (Tick)
system.membus.transDist::ReadResp              782893                       # Transaction distribution (Count)
system.membus.transDist::WritebackDirty             3                       # Transaction distribution (Count)
system.membus.transDist::WriteClean               256                       # Transaction distribution (Count)
system.membus.transDist::CleanEvict                 2                       # Transaction distribution (Count)
system.membus.transDist::ReadExReq               2179                       # Transaction distribution (Count)
system.membus.transDist::ReadExResp              2179                       # Transaction distribution (Count)
system.membus.transDist::ReadSharedReq         782893                       # Transaction distribution (Count)
system.membus.transDist::CleanInvalidReq       782210                       # Transaction distribution (Count)
system.membus.pktCount_system.l2cache.mem_side_port::system.mem_ctrl.port      2352615                       # Packet count per connected requestor and responder (Count)
system.membus.pktCount_system.l2cache.mem_side_port::total      2352615                       # Packet count per connected requestor and responder (Count)
system.membus.pktCount::total                 2352615                       # Packet count per connected requestor and responder (Count)
system.membus.pktSize_system.l2cache.mem_side_port::system.mem_ctrl.port     50261184                       # Cumulative packet size per connected requestor and responder (Byte)
system.membus.pktSize_system.l2cache.mem_side_port::total     50261184                       # Cumulative packet size per connected requestor and responder (Byte)
system.membus.pktSize::total                 50261184                       # Cumulative packet size per connected requestor and responder (Byte)
system.membus.snoops                                0                       # Total snoops (Count)
system.membus.snoopTraffic                          0                       # Total snoop traffic (Byte)
system.membus.snoopFanout::samples            1567282                       # Request fanout histogram (Count)
system.membus.snoopFanout::mean                     0                       # Request fanout histogram (Count)
system.membus.snoopFanout::stdev                    0                       # Request fanout histogram (Count)
system.membus.snoopFanout::underflows               0      0.00%      0.00% # Request fanout histogram (Count)
system.membus.snoopFanout::0                  1567282    100.00%    100.00% # Request fanout histogram (Count)
system.membus.snoopFanout::1                        0      0.00%    100.00% # Request fanout histogram (Count)
system.membus.snoopFanout::overflows                0      0.00%    100.00% # Request fanout histogram (Count)
system.membus.snoopFanout::min_value                0                       # Request fanout histogram (Count)
system.membus.snoopFanout::max_value                0                       # Request fanout histogram (Count)
system.membus.snoopFanout::total              1567282                       # Request fanout histogram (Count)
system.membus.power_state.pwrStateResidencyTicks::UNDEFINED 238586269000                       # Cumulative time (in ticks) in various power states (Tick)
system.membus.reqLayer2.occupancy          1568579000                       # Layer occupancy (ticks) (Tick)
system.membus.reqLayer2.utilization               0.0                       # Layer utilization (Ratio)
system.membus.respLayer0.occupancy         4170970000                       # Layer occupancy (ticks) (Tick)
system.membus.respLayer0.utilization              0.0                       # Layer utilization (Ratio)
system.membus.snoop_filter.totRequests        1567287                       # Total number of requests made to the snoop filter. (Count)
system.membus.snoop_filter.hitSingleRequests       782215                       # Number of requests hitting in the snoop filter with a single holder of the requested data. (Count)
system.membus.snoop_filter.hitMultiRequests            0                       # Number of requests hitting in the snoop filter with multiple (>1) holders of the requested data. (Count)
system.membus.snoop_filter.totSnoops                0                       # Total number of snoops made to the snoop filter. (Count)
system.membus.snoop_filter.hitSingleSnoops            0                       # Number of snoops hitting in the snoop filter with a single holder of the requested data. (Count)
system.membus.snoop_filter.hitMultiSnoops            0                       # Number of snoops hitting in the snoop filter with multiple (>1) holders of the requested data. (Count)
system.workload.inst.arm                            0                       # number of arm instructions executed (Count)
system.workload.inst.quiesce                        0                       # number of quiesce instructions executed (Count)

---------- End Simulation Statistics   ----------
