
---------- Begin Simulation Statistics ----------
simSeconds                                   0.100368                       # Number of seconds simulated (Second)
simTicks                                 100368037000                       # Number of ticks simulated (Tick)
finalTick                                100368037000                       # Number of ticks from beginning of simulation (restored from checkpoints and never reset) (Tick)
simFreq                                  1000000000000                       # The number of ticks per simulated second ((Tick/Second))
hostSeconds                                    145.72                       # Real time elapsed on the host (Second)
hostTickRate                                688773090                       # The number of ticks simulated per host second (ticks/s) ((Tick/Second))
hostMemory                                     724392                       # Number of bytes of host memory used (Byte)
simInsts                                     43999589                       # Number of instructions simulated (Count)
simOps                                       75500804                       # Number of ops (including micro ops) simulated (Count)
hostInstRate                                   301946                       # Simulator instruction rate (inst/s) ((Count/Second))
hostOpRate                                     518122                       # Simulator op (including micro ops) rate (op/s) ((Count/Second))
system.clk_domain.clock                          1000                       # Clock period in ticks (Tick)
system.clk_domain.voltage_domain.voltage            1                       # Voltage in Volts (Volt)
system.cpu.numCycles                        100368038                       # Number of cpu cycles simulated (Cycle)
system.cpu.cpi                               2.281113                       # CPI: cycles per instruction (core level) ((Cycle/Count))
system.cpu.ipc                               0.438382                       # IPC: instructions per cycle (core level) ((Count/Cycle))
system.cpu.numWorkItemsStarted                      0                       # Number of work items this cpu started (Count)
system.cpu.numWorkItemsCompleted                    0                       # Number of work items this cpu completed (Count)
system.cpu.instsAdded                       105213064                       # Number of instructions added to the IQ (excludes non-spec) (Count)
system.cpu.nonSpecInstsAdded                  2091363                       # Number of non-speculative instructions added to the IQ (Count)
system.cpu.instsIssued                       88618542                       # Number of instructions issued (Count)
system.cpu.squashedInstsIssued                 244803                       # Number of squashed instructions issued (Count)
system.cpu.squashedInstsExamined             31803617                       # Number of squashed instructions iterated over during squash; mainly for profiling (Count)
system.cpu.squashedOperandsExamined          87502449                       # Number of squashed operands that are examined and possibly removed from graph (Count)
system.cpu.squashedNonSpecRemoved             1176855                       # Number of squashed non-spec instructions that were removed (Count)
system.cpu.numIssuedDist::samples           100342872                       # Number of insts issued each cycle (Count)
system.cpu.numIssuedDist::mean               0.883157                       # Number of insts issued each cycle (Count)
system.cpu.numIssuedDist::stdev              1.432566                       # Number of insts issued each cycle (Count)
system.cpu.numIssuedDist::underflows                0      0.00%      0.00% # Number of insts issued each cycle (Count)
system.cpu.numIssuedDist::0                  64664113     64.44%     64.44% # Number of insts issued each cycle (Count)
system.cpu.numIssuedDist::1                   9088258      9.06%     73.50% # Number of insts issued each cycle (Count)
system.cpu.numIssuedDist::2                  10901604     10.86%     84.36% # Number of insts issued each cycle (Count)
system.cpu.numIssuedDist::3                   9528006      9.50%     93.86% # Number of insts issued each cycle (Count)
system.cpu.numIssuedDist::4                   3776192      3.76%     97.62% # Number of insts issued each cycle (Count)
system.cpu.numIssuedDist::5                   1204829      1.20%     98.82% # Number of insts issued each cycle (Count)
system.cpu.numIssuedDist::6                    533155      0.53%     99.36% # Number of insts issued each cycle (Count)
system.cpu.numIssuedDist::7                    358505      0.36%     99.71% # Number of insts issued each cycle (Count)
system.cpu.numIssuedDist::8                    288210      0.29%    100.00% # Number of insts issued each cycle (Count)
system.cpu.numIssuedDist::overflows                 0      0.00%    100.00% # Number of insts issued each cycle (Count)
system.cpu.numIssuedDist::min_value                 0                       # Number of insts issued each cycle (Count)
system.cpu.numIssuedDist::max_value                 8                       # Number of insts issued each cycle (Count)
system.cpu.numIssuedDist::total             100342872                       # Number of insts issued each cycle (Count)
system.cpu.statFuBusy::No_OpClass                   0      0.00%      0.00% # attempts to use FU when none available (Count)
system.cpu.statFuBusy::IntAlu                    7617      2.62%      2.62% # attempts to use FU when none available (Count)
system.cpu.statFuBusy::IntMult                      0      0.00%      2.62% # attempts to use FU when none available (Count)
system.cpu.statFuBusy::IntDiv                       0      0.00%      2.62% # attempts to use FU when none available (Count)
system.cpu.statFuBusy::FloatAdd                     0      0.00%      2.62% # attempts to use FU when none available (Count)
system.cpu.statFuBusy::FloatCmp                     0      0.00%      2.62% # attempts to use FU when none available (Count)
system.cpu.statFuBusy::FloatCvt                     0      0.00%      2.62% # attempts to use FU when none available (Count)
system.cpu.statFuBusy::FloatMult                    0      0.00%      2.62% # attempts to use FU when none available (Count)
system.cpu.statFuBusy::FloatMultAcc                 0      0.00%      2.62% # attempts to use FU when none available (Count)
system.cpu.statFuBusy::FloatDiv                     0      0.00%      2.62% # attempts to use FU when none available (Count)
system.cpu.statFuBusy::FloatMisc                    0      0.00%      2.62% # attempts to use FU when none available (Count)
system.cpu.statFuBusy::FloatSqrt                    0      0.00%      2.62% # attempts to use FU when none available (Count)
system.cpu.statFuBusy::SimdAdd                      0      0.00%      2.62% # attempts to use FU when none available (Count)
system.cpu.statFuBusy::SimdAddAcc                   0      0.00%      2.62% # attempts to use FU when none available (Count)
system.cpu.statFuBusy::SimdAlu                     13      0.00%      2.62% # attempts to use FU when none available (Count)
system.cpu.statFuBusy::SimdCmp                      0      0.00%      2.62% # attempts to use FU when none available (Count)
system.cpu.statFuBusy::SimdCvt                     20      0.01%      2.63% # attempts to use FU when none available (Count)
system.cpu.statFuBusy::SimdMisc                     1      0.00%      2.63% # attempts to use FU when none available (Count)
system.cpu.statFuBusy::SimdMult                     0      0.00%      2.63% # attempts to use FU when none available (Count)
system.cpu.statFuBusy::SimdMultAcc                  0      0.00%      2.63% # attempts to use FU when none available (Count)
system.cpu.statFuBusy::SimdMatMultAcc               0      0.00%      2.63% # attempts to use FU when none available (Count)
system.cpu.statFuBusy::SimdShift                    0      0.00%      2.63% # attempts to use FU when none available (Count)
system.cpu.statFuBusy::SimdShiftAcc                 0      0.00%      2.63% # attempts to use FU when none available (Count)
system.cpu.statFuBusy::SimdDiv                      0      0.00%      2.63% # attempts to use FU when none available (Count)
system.cpu.statFuBusy::SimdSqrt                     0      0.00%      2.63% # attempts to use FU when none available (Count)
system.cpu.statFuBusy::SimdFloatAdd                 0      0.00%      2.63% # attempts to use FU when none available (Count)
system.cpu.statFuBusy::SimdFloatAlu                 0      0.00%      2.63% # attempts to use FU when none available (Count)
system.cpu.statFuBusy::SimdFloatCmp                 0      0.00%      2.63% # attempts to use FU when none available (Count)
system.cpu.statFuBusy::SimdFloatCvt                 0      0.00%      2.63% # attempts to use FU when none available (Count)
system.cpu.statFuBusy::SimdFloatDiv                 0      0.00%      2.63% # attempts to use FU when none available (Count)
system.cpu.statFuBusy::SimdFloatMisc                0      0.00%      2.63% # attempts to use FU when none available (Count)
system.cpu.statFuBusy::SimdFloatMult                0      0.00%      2.63% # attempts to use FU when none available (Count)
system.cpu.statFuBusy::SimdFloatMultAcc             0      0.00%      2.63% # attempts to use FU when none available (Count)
system.cpu.statFuBusy::SimdFloatMatMultAcc            0      0.00%      2.63% # attempts to use FU when none available (Count)
system.cpu.statFuBusy::SimdFloatSqrt                0      0.00%      2.63% # attempts to use FU when none available (Count)
system.cpu.statFuBusy::SimdReduceAdd                0      0.00%      2.63% # attempts to use FU when none available (Count)
system.cpu.statFuBusy::SimdReduceAlu                0      0.00%      2.63% # attempts to use FU when none available (Count)
system.cpu.statFuBusy::SimdReduceCmp                0      0.00%      2.63% # attempts to use FU when none available (Count)
system.cpu.statFuBusy::SimdFloatReduceAdd            0      0.00%      2.63% # attempts to use FU when none available (Count)
system.cpu.statFuBusy::SimdFloatReduceCmp            0      0.00%      2.63% # attempts to use FU when none available (Count)
system.cpu.statFuBusy::SimdAes                      0      0.00%      2.63% # attempts to use FU when none available (Count)
system.cpu.statFuBusy::SimdAesMix                   0      0.00%      2.63% # attempts to use FU when none available (Count)
system.cpu.statFuBusy::SimdSha1Hash                 0      0.00%      2.63% # attempts to use FU when none available (Count)
system.cpu.statFuBusy::SimdSha1Hash2                0      0.00%      2.63% # attempts to use FU when none available (Count)
system.cpu.statFuBusy::SimdSha256Hash               0      0.00%      2.63% # attempts to use FU when none available (Count)
system.cpu.statFuBusy::SimdSha256Hash2              0      0.00%      2.63% # attempts to use FU when none available (Count)
system.cpu.statFuBusy::SimdShaSigma2                0      0.00%      2.63% # attempts to use FU when none available (Count)
system.cpu.statFuBusy::SimdShaSigma3                0      0.00%      2.63% # attempts to use FU when none available (Count)
system.cpu.statFuBusy::SimdPredAlu                  0      0.00%      2.63% # attempts to use FU when none available (Count)
system.cpu.statFuBusy::Matrix                       0      0.00%      2.63% # attempts to use FU when none available (Count)
system.cpu.statFuBusy::MatrixMov                    0      0.00%      2.63% # attempts to use FU when none available (Count)
system.cpu.statFuBusy::MatrixOP                     0      0.00%      2.63% # attempts to use FU when none available (Count)
system.cpu.statFuBusy::MemRead                 283126     97.25%     99.88% # attempts to use FU when none available (Count)
system.cpu.statFuBusy::MemWrite                   316      0.11%     99.99% # attempts to use FU when none available (Count)
system.cpu.statFuBusy::FloatMemRead                 7      0.00%     99.99% # attempts to use FU when none available (Count)
system.cpu.statFuBusy::FloatMemWrite               35      0.01%    100.00% # attempts to use FU when none available (Count)
system.cpu.statFuBusy::IprAccess                    0      0.00%    100.00% # attempts to use FU when none available (Count)
system.cpu.statFuBusy::InstPrefetch                 0      0.00%    100.00% # attempts to use FU when none available (Count)
system.cpu.statFuBusy::VectorUnitStrideLoad            0      0.00%    100.00% # attempts to use FU when none available (Count)
system.cpu.statFuBusy::VectorUnitStrideStore            0      0.00%    100.00% # attempts to use FU when none available (Count)
system.cpu.statFuBusy::VectorUnitStrideMaskLoad            0      0.00%    100.00% # attempts to use FU when none available (Count)
system.cpu.statFuBusy::VectorUnitStrideMaskStore            0      0.00%    100.00% # attempts to use FU when none available (Count)
system.cpu.statFuBusy::VectorStridedLoad            0      0.00%    100.00% # attempts to use FU when none available (Count)
system.cpu.statFuBusy::VectorStridedStore            0      0.00%    100.00% # attempts to use FU when none available (Count)
system.cpu.statFuBusy::VectorIndexedLoad            0      0.00%    100.00% # attempts to use FU when none available (Count)
system.cpu.statFuBusy::VectorIndexedStore            0      0.00%    100.00% # attempts to use FU when none available (Count)
system.cpu.statFuBusy::VectorUnitStrideFaultOnlyFirstLoad            0      0.00%    100.00% # attempts to use FU when none available (Count)
system.cpu.statFuBusy::VectorWholeRegisterLoad            0      0.00%    100.00% # attempts to use FU when none available (Count)
system.cpu.statFuBusy::VectorWholeRegisterStore            0      0.00%    100.00% # attempts to use FU when none available (Count)
system.cpu.statFuBusy::VectorIntegerArith            0      0.00%    100.00% # attempts to use FU when none available (Count)
system.cpu.statFuBusy::VectorFloatArith             0      0.00%    100.00% # attempts to use FU when none available (Count)
system.cpu.statFuBusy::VectorFloatConvert            0      0.00%    100.00% # attempts to use FU when none available (Count)
system.cpu.statFuBusy::VectorIntegerReduce            0      0.00%    100.00% # attempts to use FU when none available (Count)
system.cpu.statFuBusy::VectorFloatReduce            0      0.00%    100.00% # attempts to use FU when none available (Count)
system.cpu.statFuBusy::VectorMisc                   0      0.00%    100.00% # attempts to use FU when none available (Count)
system.cpu.statFuBusy::VectorIntegerExtension            0      0.00%    100.00% # attempts to use FU when none available (Count)
system.cpu.statFuBusy::VectorConfig                 0      0.00%    100.00% # attempts to use FU when none available (Count)
system.cpu.statIssuedInstType_0::No_OpClass         1166      0.00%      0.00% # Number of instructions issued per FU type, per thread (Count)
system.cpu.statIssuedInstType_0::IntAlu      63469743     71.62%     71.62% # Number of instructions issued per FU type, per thread (Count)
system.cpu.statIssuedInstType_0::IntMult       329504      0.37%     71.99% # Number of instructions issued per FU type, per thread (Count)
system.cpu.statIssuedInstType_0::IntDiv         16745      0.02%     72.01% # Number of instructions issued per FU type, per thread (Count)
system.cpu.statIssuedInstType_0::FloatAdd          328      0.00%     72.01% # Number of instructions issued per FU type, per thread (Count)
system.cpu.statIssuedInstType_0::FloatCmp            0      0.00%     72.01% # Number of instructions issued per FU type, per thread (Count)
system.cpu.statIssuedInstType_0::FloatCvt            0      0.00%     72.01% # Number of instructions issued per FU type, per thread (Count)
system.cpu.statIssuedInstType_0::FloatMult            0      0.00%     72.01% # Number of instructions issued per FU type, per thread (Count)
system.cpu.statIssuedInstType_0::FloatMultAcc            0      0.00%     72.01% # Number of instructions issued per FU type, per thread (Count)
system.cpu.statIssuedInstType_0::FloatDiv            0      0.00%     72.01% # Number of instructions issued per FU type, per thread (Count)
system.cpu.statIssuedInstType_0::FloatMisc            0      0.00%     72.01% # Number of instructions issued per FU type, per thread (Count)
system.cpu.statIssuedInstType_0::FloatSqrt            0      0.00%     72.01% # Number of instructions issued per FU type, per thread (Count)
system.cpu.statIssuedInstType_0::SimdAdd            0      0.00%     72.01% # Number of instructions issued per FU type, per thread (Count)
system.cpu.statIssuedInstType_0::SimdAddAcc            0      0.00%     72.01% # Number of instructions issued per FU type, per thread (Count)
system.cpu.statIssuedInstType_0::SimdAlu         1656      0.00%     72.02% # Number of instructions issued per FU type, per thread (Count)
system.cpu.statIssuedInstType_0::SimdCmp            0      0.00%     72.02% # Number of instructions issued per FU type, per thread (Count)
system.cpu.statIssuedInstType_0::SimdCvt         1907      0.00%     72.02% # Number of instructions issued per FU type, per thread (Count)
system.cpu.statIssuedInstType_0::SimdMisc         3259      0.00%     72.02% # Number of instructions issued per FU type, per thread (Count)
system.cpu.statIssuedInstType_0::SimdMult            0      0.00%     72.02% # Number of instructions issued per FU type, per thread (Count)
system.cpu.statIssuedInstType_0::SimdMultAcc            0      0.00%     72.02% # Number of instructions issued per FU type, per thread (Count)
system.cpu.statIssuedInstType_0::SimdMatMultAcc            0      0.00%     72.02% # Number of instructions issued per FU type, per thread (Count)
system.cpu.statIssuedInstType_0::SimdShift            0      0.00%     72.02% # Number of instructions issued per FU type, per thread (Count)
system.cpu.statIssuedInstType_0::SimdShiftAcc            0      0.00%     72.02% # Number of instructions issued per FU type, per thread (Count)
system.cpu.statIssuedInstType_0::SimdDiv            0      0.00%     72.02% # Number of instructions issued per FU type, per thread (Count)
system.cpu.statIssuedInstType_0::SimdSqrt            0      0.00%     72.02% # Number of instructions issued per FU type, per thread (Count)
system.cpu.statIssuedInstType_0::SimdFloatAdd            0      0.00%     72.02% # Number of instructions issued per FU type, per thread (Count)
system.cpu.statIssuedInstType_0::SimdFloatAlu            0      0.00%     72.02% # Number of instructions issued per FU type, per thread (Count)
system.cpu.statIssuedInstType_0::SimdFloatCmp            0      0.00%     72.02% # Number of instructions issued per FU type, per thread (Count)
system.cpu.statIssuedInstType_0::SimdFloatCvt            0      0.00%     72.02% # Number of instructions issued per FU type, per thread (Count)
system.cpu.statIssuedInstType_0::SimdFloatDiv            0      0.00%     72.02% # Number of instructions issued per FU type, per thread (Count)
system.cpu.statIssuedInstType_0::SimdFloatMisc            0      0.00%     72.02% # Number of instructions issued per FU type, per thread (Count)
system.cpu.statIssuedInstType_0::SimdFloatMult            0      0.00%     72.02% # Number of instructions issued per FU type, per thread (Count)
system.cpu.statIssuedInstType_0::SimdFloatMultAcc            0      0.00%     72.02% # Number of instructions issued per FU type, per thread (Count)
system.cpu.statIssuedInstType_0::SimdFloatMatMultAcc            0      0.00%     72.02% # Number of instructions issued per FU type, per thread (Count)
system.cpu.statIssuedInstType_0::SimdFloatSqrt            0      0.00%     72.02% # Number of instructions issued per FU type, per thread (Count)
system.cpu.statIssuedInstType_0::SimdReduceAdd            0      0.00%     72.02% # Number of instructions issued per FU type, per thread (Count)
system.cpu.statIssuedInstType_0::SimdReduceAlu            0      0.00%     72.02% # Number of instructions issued per FU type, per thread (Count)
system.cpu.statIssuedInstType_0::SimdReduceCmp            0      0.00%     72.02% # Number of instructions issued per FU type, per thread (Count)
system.cpu.statIssuedInstType_0::SimdFloatReduceAdd            0      0.00%     72.02% # Number of instructions issued per FU type, per thread (Count)
system.cpu.statIssuedInstType_0::SimdFloatReduceCmp            0      0.00%     72.02% # Number of instructions issued per FU type, per thread (Count)
system.cpu.statIssuedInstType_0::SimdAes            0      0.00%     72.02% # Number of instructions issued per FU type, per thread (Count)
system.cpu.statIssuedInstType_0::SimdAesMix            0      0.00%     72.02% # Number of instructions issued per FU type, per thread (Count)
system.cpu.statIssuedInstType_0::SimdSha1Hash            0      0.00%     72.02% # Number of instructions issued per FU type, per thread (Count)
system.cpu.statIssuedInstType_0::SimdSha1Hash2            0      0.00%     72.02% # Number of instructions issued per FU type, per thread (Count)
system.cpu.statIssuedInstType_0::SimdSha256Hash            0      0.00%     72.02% # Number of instructions issued per FU type, per thread (Count)
system.cpu.statIssuedInstType_0::SimdSha256Hash2            0      0.00%     72.02% # Number of instructions issued per FU type, per thread (Count)
system.cpu.statIssuedInstType_0::SimdShaSigma2            0      0.00%     72.02% # Number of instructions issued per FU type, per thread (Count)
system.cpu.statIssuedInstType_0::SimdShaSigma3            0      0.00%     72.02% # Number of instructions issued per FU type, per thread (Count)
system.cpu.statIssuedInstType_0::SimdPredAlu            0      0.00%     72.02% # Number of instructions issued per FU type, per thread (Count)
system.cpu.statIssuedInstType_0::Matrix             0      0.00%     72.02% # Number of instructions issued per FU type, per thread (Count)
system.cpu.statIssuedInstType_0::MatrixMov            0      0.00%     72.02% # Number of instructions issued per FU type, per thread (Count)
system.cpu.statIssuedInstType_0::MatrixOP            0      0.00%     72.02% # Number of instructions issued per FU type, per thread (Count)
system.cpu.statIssuedInstType_0::MemRead     16197227     18.28%     90.30% # Number of instructions issued per FU type, per thread (Count)
system.cpu.statIssuedInstType_0::MemWrite      8595700      9.70%    100.00% # Number of instructions issued per FU type, per thread (Count)
system.cpu.statIssuedInstType_0::FloatMemRead         1018      0.00%    100.00% # Number of instructions issued per FU type, per thread (Count)
system.cpu.statIssuedInstType_0::FloatMemWrite          289      0.00%    100.00% # Number of instructions issued per FU type, per thread (Count)
system.cpu.statIssuedInstType_0::IprAccess            0      0.00%    100.00% # Number of instructions issued per FU type, per thread (Count)
system.cpu.statIssuedInstType_0::InstPrefetch            0      0.00%    100.00% # Number of instructions issued per FU type, per thread (Count)
system.cpu.statIssuedInstType_0::VectorUnitStrideLoad            0      0.00%    100.00% # Number of instructions issued per FU type, per thread (Count)
system.cpu.statIssuedInstType_0::VectorUnitStrideStore            0      0.00%    100.00% # Number of instructions issued per FU type, per thread (Count)
system.cpu.statIssuedInstType_0::VectorUnitStrideMaskLoad            0      0.00%    100.00% # Number of instructions issued per FU type, per thread (Count)
system.cpu.statIssuedInstType_0::VectorUnitStrideMaskStore            0      0.00%    100.00% # Number of instructions issued per FU type, per thread (Count)
system.cpu.statIssuedInstType_0::VectorStridedLoad            0      0.00%    100.00% # Number of instructions issued per FU type, per thread (Count)
system.cpu.statIssuedInstType_0::VectorStridedStore            0      0.00%    100.00% # Number of instructions issued per FU type, per thread (Count)
system.cpu.statIssuedInstType_0::VectorIndexedLoad            0      0.00%    100.00% # Number of instructions issued per FU type, per thread (Count)
system.cpu.statIssuedInstType_0::VectorIndexedStore            0      0.00%    100.00% # Number of instructions issued per FU type, per thread (Count)
system.cpu.statIssuedInstType_0::VectorUnitStrideFaultOnlyFirstLoad            0      0.00%    100.00% # Number of instructions issued per FU type, per thread (Count)
system.cpu.statIssuedInstType_0::VectorWholeRegisterLoad            0      0.00%    100.00% # Number of instructions issued per FU type, per thread (Count)
system.cpu.statIssuedInstType_0::VectorWholeRegisterStore            0      0.00%    100.00% # Number of instructions issued per FU type, per thread (Count)
system.cpu.statIssuedInstType_0::VectorIntegerArith            0      0.00%    100.00% # Number of instructions issued per FU type, per thread (Count)
system.cpu.statIssuedInstType_0::VectorFloatArith            0      0.00%    100.00% # Number of instructions issued per FU type, per thread (Count)
system.cpu.statIssuedInstType_0::VectorFloatConvert            0      0.00%    100.00% # Number of instructions issued per FU type, per thread (Count)
system.cpu.statIssuedInstType_0::VectorIntegerReduce            0      0.00%    100.00% # Number of instructions issued per FU type, per thread (Count)
system.cpu.statIssuedInstType_0::VectorFloatReduce            0      0.00%    100.00% # Number of instructions issued per FU type, per thread (Count)
system.cpu.statIssuedInstType_0::VectorMisc            0      0.00%    100.00% # Number of instructions issued per FU type, per thread (Count)
system.cpu.statIssuedInstType_0::VectorIntegerExtension            0      0.00%    100.00% # Number of instructions issued per FU type, per thread (Count)
system.cpu.statIssuedInstType_0::VectorConfig            0      0.00%    100.00% # Number of instructions issued per FU type, per thread (Count)
system.cpu.statIssuedInstType_0::total       88618542                       # Number of instructions issued per FU type, per thread (Count)
system.cpu.issueRate                         0.882936                       # Inst issue rate ((Count/Cycle))
system.cpu.fuBusy                              291135                       # FU busy when requested (Count)
system.cpu.fuBusyRate                        0.003285                       # FU busy rate (busy events/executed inst) ((Count/Count))
system.cpu.intInstQueueReads                278096454                       # Number of integer instruction queue reads (Count)
system.cpu.intInstQueueWrites               139461775                       # Number of integer instruction queue writes (Count)
system.cpu.intInstQueueWakeupAccesses        88123271                       # Number of integer instruction queue wakeup accesses (Count)
system.cpu.fpInstQueueReads                     19440                       # Number of floating instruction queue reads (Count)
system.cpu.fpInstQueueWrites                    10662                       # Number of floating instruction queue writes (Count)
system.cpu.fpInstQueueWakeupAccesses             9537                       # Number of floating instruction queue wakeup accesses (Count)
system.cpu.vecInstQueueReads                        0                       # Number of vector instruction queue reads (Count)
system.cpu.vecInstQueueWrites                       0                       # Number of vector instruction queue writes (Count)
system.cpu.vecInstQueueWakeupAccesses               0                       # Number of vector instruction queue wakeup accesses (Count)
system.cpu.intAluAccesses                    88898799                       # Number of integer alu accesses (Count)
system.cpu.fpAluAccesses                         9712                       # Number of floating point alu accesses (Count)
system.cpu.vecAluAccesses                           0                       # Number of vector alu accesses (Count)
system.cpu.numSquashedInsts                    268985                       # Number of squashed instructions skipped in execute (Count)
system.cpu.numSwp                                   0                       # Number of swp insts executed (Count)
system.cpu.timesIdled                             641                       # Number of times that the entire CPU went into an idle state and unscheduled itself (Count)
system.cpu.idleCycles                           25166                       # Total number of cycles that the CPU has spent unscheduled due to idling (Cycle)
system.cpu.MemDepUnit__0.insertedLoads       21469575                       # Number of loads inserted to the mem dependence unit. (Count)
system.cpu.MemDepUnit__0.insertedStores      12352569                       # Number of stores inserted to the mem dependence unit. (Count)
system.cpu.MemDepUnit__0.conflictingLoads     19046622                       # Number of conflicting loads. (Count)
system.cpu.MemDepUnit__0.conflictingStores      9925548                       # Number of conflicting stores. (Count)
system.cpu.MemDepUnit__1.insertedLoads              0                       # Number of loads inserted to the mem dependence unit. (Count)
system.cpu.MemDepUnit__1.insertedStores             0                       # Number of stores inserted to the mem dependence unit. (Count)
system.cpu.MemDepUnit__1.conflictingLoads            0                       # Number of conflicting loads. (Count)
system.cpu.MemDepUnit__1.conflictingStores            0                       # Number of conflicting stores. (Count)
system.cpu.MemDepUnit__2.insertedLoads              0                       # Number of loads inserted to the mem dependence unit. (Count)
system.cpu.MemDepUnit__2.insertedStores             0                       # Number of stores inserted to the mem dependence unit. (Count)
system.cpu.MemDepUnit__2.conflictingLoads            0                       # Number of conflicting loads. (Count)
system.cpu.MemDepUnit__2.conflictingStores            0                       # Number of conflicting stores. (Count)
system.cpu.MemDepUnit__3.insertedLoads              0                       # Number of loads inserted to the mem dependence unit. (Count)
system.cpu.MemDepUnit__3.insertedStores             0                       # Number of stores inserted to the mem dependence unit. (Count)
system.cpu.MemDepUnit__3.conflictingLoads            0                       # Number of conflicting loads. (Count)
system.cpu.MemDepUnit__3.conflictingStores            0                       # Number of conflicting stores. (Count)
system.cpu.branchPred.lookups                 9117119                       # Number of BP lookups (Count)
system.cpu.branchPred.condPredicted           8816290                       # Number of conditional branches predicted (Count)
system.cpu.branchPred.condIncorrect             47285                       # Number of conditional branches incorrect (Count)
system.cpu.branchPred.BTBLookups              8293697                       # Number of BTB lookups (Count)
system.cpu.branchPred.BTBUpdates                 4615                       # Number of BTB updates (Count)
system.cpu.branchPred.BTBHits                 8291902                       # Number of BTB hits (Count)
system.cpu.branchPred.BTBHitRatio            0.999784                       # BTB Hit Ratio (Ratio)
system.cpu.branchPred.RASUsed                   38835                       # Number of times the RAS was used to get a target. (Count)
system.cpu.branchPred.RASIncorrect                  6                       # Number of incorrect RAS predictions. (Count)
system.cpu.branchPred.indirectLookups            1393                       # Number of indirect predictor lookups. (Count)
system.cpu.branchPred.indirectHits                973                       # Number of indirect target hits. (Count)
system.cpu.branchPred.indirectMisses              420                       # Number of indirect misses. (Count)
system.cpu.branchPred.indirectMispredicted          225                       # Number of mispredicted indirect branches. (Count)
system.cpu.commit.commitSquashedInsts        31801183                       # The number of squashed insts skipped by commit (Count)
system.cpu.commit.commitNonSpecStalls          914508                       # The number of times commit has been forced to stall to communicate backwards (Count)
system.cpu.commit.branchMispredicts             46809                       # The number of times a branch was mispredicted (Count)
system.cpu.commit.numCommittedDist::samples     96164492                       # Number of insts commited each cycle (Count)
system.cpu.commit.numCommittedDist::mean     0.785121                       # Number of insts commited each cycle (Count)
system.cpu.commit.numCommittedDist::stdev     1.599777                       # Number of insts commited each cycle (Count)
system.cpu.commit.numCommittedDist::underflows            0      0.00%      0.00% # Number of insts commited each cycle (Count)
system.cpu.commit.numCommittedDist::0        68926224     71.68%     71.68% # Number of insts commited each cycle (Count)
system.cpu.commit.numCommittedDist::1         8425067      8.76%     80.44% # Number of insts commited each cycle (Count)
system.cpu.commit.numCommittedDist::2         6540012      6.80%     87.24% # Number of insts commited each cycle (Count)
system.cpu.commit.numCommittedDist::3         6091612      6.33%     93.57% # Number of insts commited each cycle (Count)
system.cpu.commit.numCommittedDist::4           87406      0.09%     93.66% # Number of insts commited each cycle (Count)
system.cpu.commit.numCommittedDist::5         3969729      4.13%     97.79% # Number of insts commited each cycle (Count)
system.cpu.commit.numCommittedDist::6          734079      0.76%     98.55% # Number of insts commited each cycle (Count)
system.cpu.commit.numCommittedDist::7            4770      0.00%     98.56% # Number of insts commited each cycle (Count)
system.cpu.commit.numCommittedDist::8         1385593      1.44%    100.00% # Number of insts commited each cycle (Count)
system.cpu.commit.numCommittedDist::overflows            0      0.00%    100.00% # Number of insts commited each cycle (Count)
system.cpu.commit.numCommittedDist::min_value            0                       # Number of insts commited each cycle (Count)
system.cpu.commit.numCommittedDist::max_value            8                       # Number of insts commited each cycle (Count)
system.cpu.commit.numCommittedDist::total     96164492                       # Number of insts commited each cycle (Count)
system.cpu.commit.amos                              0                       # Number of atomic instructions committed (Count)
system.cpu.commit.membars                      914508                       # Number of memory barriers committed (Count)
system.cpu.commit.functionCalls                 36510                       # Number of function calls committed. (Count)
system.cpu.commit.committedInstType_0::No_OpClass          629      0.00%      0.00% # Class of committed instruction (Count)
system.cpu.commit.committedInstType_0::IntAlu     52369068     69.36%     69.36% # Class of committed instruction (Count)
system.cpu.commit.committedInstType_0::IntMult       327803      0.43%     69.80% # Class of committed instruction (Count)
system.cpu.commit.committedInstType_0::IntDiv        16639      0.02%     69.82% # Class of committed instruction (Count)
system.cpu.commit.committedInstType_0::FloatAdd          328      0.00%     69.82% # Class of committed instruction (Count)
system.cpu.commit.committedInstType_0::FloatCmp            0      0.00%     69.82% # Class of committed instruction (Count)
system.cpu.commit.committedInstType_0::FloatCvt            0      0.00%     69.82% # Class of committed instruction (Count)
system.cpu.commit.committedInstType_0::FloatMult            0      0.00%     69.82% # Class of committed instruction (Count)
system.cpu.commit.committedInstType_0::FloatMultAcc            0      0.00%     69.82% # Class of committed instruction (Count)
system.cpu.commit.committedInstType_0::FloatDiv            0      0.00%     69.82% # Class of committed instruction (Count)
system.cpu.commit.committedInstType_0::FloatMisc            0      0.00%     69.82% # Class of committed instruction (Count)
system.cpu.commit.committedInstType_0::FloatSqrt            0      0.00%     69.82% # Class of committed instruction (Count)
system.cpu.commit.committedInstType_0::SimdAdd            0      0.00%     69.82% # Class of committed instruction (Count)
system.cpu.commit.committedInstType_0::SimdAddAcc            0      0.00%     69.82% # Class of committed instruction (Count)
system.cpu.commit.committedInstType_0::SimdAlu         1602      0.00%     69.82% # Class of committed instruction (Count)
system.cpu.commit.committedInstType_0::SimdCmp            0      0.00%     69.82% # Class of committed instruction (Count)
system.cpu.commit.committedInstType_0::SimdCvt         1814      0.00%     69.82% # Class of committed instruction (Count)
system.cpu.commit.committedInstType_0::SimdMisc         3230      0.00%     69.83% # Class of committed instruction (Count)
system.cpu.commit.committedInstType_0::SimdMult            0      0.00%     69.83% # Class of committed instruction (Count)
system.cpu.commit.committedInstType_0::SimdMultAcc            0      0.00%     69.83% # Class of committed instruction (Count)
system.cpu.commit.committedInstType_0::SimdMatMultAcc            0      0.00%     69.83% # Class of committed instruction (Count)
system.cpu.commit.committedInstType_0::SimdShift            0      0.00%     69.83% # Class of committed instruction (Count)
system.cpu.commit.committedInstType_0::SimdShiftAcc            0      0.00%     69.83% # Class of committed instruction (Count)
system.cpu.commit.committedInstType_0::SimdDiv            0      0.00%     69.83% # Class of committed instruction (Count)
system.cpu.commit.committedInstType_0::SimdSqrt            0      0.00%     69.83% # Class of committed instruction (Count)
system.cpu.commit.committedInstType_0::SimdFloatAdd            0      0.00%     69.83% # Class of committed instruction (Count)
system.cpu.commit.committedInstType_0::SimdFloatAlu            0      0.00%     69.83% # Class of committed instruction (Count)
system.cpu.commit.committedInstType_0::SimdFloatCmp            0      0.00%     69.83% # Class of committed instruction (Count)
system.cpu.commit.committedInstType_0::SimdFloatCvt            0      0.00%     69.83% # Class of committed instruction (Count)
system.cpu.commit.committedInstType_0::SimdFloatDiv            0      0.00%     69.83% # Class of committed instruction (Count)
system.cpu.commit.committedInstType_0::SimdFloatMisc            0      0.00%     69.83% # Class of committed instruction (Count)
system.cpu.commit.committedInstType_0::SimdFloatMult            0      0.00%     69.83% # Class of committed instruction (Count)
system.cpu.commit.committedInstType_0::SimdFloatMultAcc            0      0.00%     69.83% # Class of committed instruction (Count)
system.cpu.commit.committedInstType_0::SimdFloatMatMultAcc            0      0.00%     69.83% # Class of committed instruction (Count)
system.cpu.commit.committedInstType_0::SimdFloatSqrt            0      0.00%     69.83% # Class of committed instruction (Count)
system.cpu.commit.committedInstType_0::SimdReduceAdd            0      0.00%     69.83% # Class of committed instruction (Count)
system.cpu.commit.committedInstType_0::SimdReduceAlu            0      0.00%     69.83% # Class of committed instruction (Count)
system.cpu.commit.committedInstType_0::SimdReduceCmp            0      0.00%     69.83% # Class of committed instruction (Count)
system.cpu.commit.committedInstType_0::SimdFloatReduceAdd            0      0.00%     69.83% # Class of committed instruction (Count)
system.cpu.commit.committedInstType_0::SimdFloatReduceCmp            0      0.00%     69.83% # Class of committed instruction (Count)
system.cpu.commit.committedInstType_0::SimdAes            0      0.00%     69.83% # Class of committed instruction (Count)
system.cpu.commit.committedInstType_0::SimdAesMix            0      0.00%     69.83% # Class of committed instruction (Count)
system.cpu.commit.committedInstType_0::SimdSha1Hash            0      0.00%     69.83% # Class of committed instruction (Count)
system.cpu.commit.committedInstType_0::SimdSha1Hash2            0      0.00%     69.83% # Class of committed instruction (Count)
system.cpu.commit.committedInstType_0::SimdSha256Hash            0      0.00%     69.83% # Class of committed instruction (Count)
system.cpu.commit.committedInstType_0::SimdSha256Hash2            0      0.00%     69.83% # Class of committed instruction (Count)
system.cpu.commit.committedInstType_0::SimdShaSigma2            0      0.00%     69.83% # Class of committed instruction (Count)
system.cpu.commit.committedInstType_0::SimdShaSigma3            0      0.00%     69.83% # Class of committed instruction (Count)
system.cpu.commit.committedInstType_0::SimdPredAlu            0      0.00%     69.83% # Class of committed instruction (Count)
system.cpu.commit.committedInstType_0::Matrix            0      0.00%     69.83% # Class of committed instruction (Count)
system.cpu.commit.committedInstType_0::MatrixMov            0      0.00%     69.83% # Class of committed instruction (Count)
system.cpu.commit.committedInstType_0::MatrixOP            0      0.00%     69.83% # Class of committed instruction (Count)
system.cpu.commit.committedInstType_0::MemRead     14670897     19.43%     89.26% # Class of committed instruction (Count)
system.cpu.commit.committedInstType_0::MemWrite      8107712     10.74%    100.00% # Class of committed instruction (Count)
system.cpu.commit.committedInstType_0::FloatMemRead          922      0.00%    100.00% # Class of committed instruction (Count)
system.cpu.commit.committedInstType_0::FloatMemWrite          160      0.00%    100.00% # Class of committed instruction (Count)
system.cpu.commit.committedInstType_0::IprAccess            0      0.00%    100.00% # Class of committed instruction (Count)
system.cpu.commit.committedInstType_0::InstPrefetch            0      0.00%    100.00% # Class of committed instruction (Count)
system.cpu.commit.committedInstType_0::VectorUnitStrideLoad            0      0.00%    100.00% # Class of committed instruction (Count)
system.cpu.commit.committedInstType_0::VectorUnitStrideStore            0      0.00%    100.00% # Class of committed instruction (Count)
system.cpu.commit.committedInstType_0::VectorUnitStrideMaskLoad            0      0.00%    100.00% # Class of committed instruction (Count)
system.cpu.commit.committedInstType_0::VectorUnitStrideMaskStore            0      0.00%    100.00% # Class of committed instruction (Count)
system.cpu.commit.committedInstType_0::VectorStridedLoad            0      0.00%    100.00% # Class of committed instruction (Count)
system.cpu.commit.committedInstType_0::VectorStridedStore            0      0.00%    100.00% # Class of committed instruction (Count)
system.cpu.commit.committedInstType_0::VectorIndexedLoad            0      0.00%    100.00% # Class of committed instruction (Count)
system.cpu.commit.committedInstType_0::VectorIndexedStore            0      0.00%    100.00% # Class of committed instruction (Count)
system.cpu.commit.committedInstType_0::VectorUnitStrideFaultOnlyFirstLoad            0      0.00%    100.00% # Class of committed instruction (Count)
system.cpu.commit.committedInstType_0::VectorWholeRegisterLoad            0      0.00%    100.00% # Class of committed instruction (Count)
system.cpu.commit.committedInstType_0::VectorWholeRegisterStore            0      0.00%    100.00% # Class of committed instruction (Count)
system.cpu.commit.committedInstType_0::VectorIntegerArith            0      0.00%    100.00% # Class of committed instruction (Count)
system.cpu.commit.committedInstType_0::VectorFloatArith            0      0.00%    100.00% # Class of committed instruction (Count)
system.cpu.commit.committedInstType_0::VectorFloatConvert            0      0.00%    100.00% # Class of committed instruction (Count)
system.cpu.commit.committedInstType_0::VectorIntegerReduce            0      0.00%    100.00% # Class of committed instruction (Count)
system.cpu.commit.committedInstType_0::VectorFloatReduce            0      0.00%    100.00% # Class of committed instruction (Count)
system.cpu.commit.committedInstType_0::VectorMisc            0      0.00%    100.00% # Class of committed instruction (Count)
system.cpu.commit.committedInstType_0::VectorIntegerExtension            0      0.00%    100.00% # Class of committed instruction (Count)
system.cpu.commit.committedInstType_0::VectorConfig            0      0.00%    100.00% # Class of committed instruction (Count)
system.cpu.commit.committedInstType_0::total     75500804                       # Class of committed instruction (Count)
system.cpu.commit.commitEligibleSamples       1385593                       # number cycles where commit BW limit reached (Cycle)
system.cpu.commitStats0.numInsts             43999589                       # Number of instructions committed (thread level) (Count)
system.cpu.commitStats0.numOps               75500804                       # Number of ops (including micro ops) committed (thread level) (Count)
system.cpu.commitStats0.numInstsNotNOP       43999589                       # Number of instructions committed excluding NOPs or prefetches (Count)
system.cpu.commitStats0.numOpsNotNOP         75500804                       # Number of Ops (including micro ops) Simulated (Count)
system.cpu.commitStats0.cpi                  2.281113                       # CPI: cycles per instruction (thread level) ((Cycle/Count))
system.cpu.commitStats0.ipc                  0.438382                       # IPC: instructions per cycle (thread level) ((Count/Cycle))
system.cpu.commitStats0.numMemRefs           22779691                       # Number of memory references committed (Count)
system.cpu.commitStats0.numFpInsts               9194                       # Number of float instructions (Count)
system.cpu.commitStats0.numIntInsts          74575745                       # Number of integer instructions (Count)
system.cpu.commitStats0.numLoadInsts         14671819                       # Number of load instructions (Count)
system.cpu.commitStats0.numStoreInsts         8107872                       # Number of store instructions (Count)
system.cpu.commitStats0.numVecInsts                 0                       # Number of vector instructions (Count)
system.cpu.commitStats0.committedInstType::No_OpClass          629      0.00%      0.00% # Class of committed instruction. (Count)
system.cpu.commitStats0.committedInstType::IntAlu     52369068     69.36%     69.36% # Class of committed instruction. (Count)
system.cpu.commitStats0.committedInstType::IntMult       327803      0.43%     69.80% # Class of committed instruction. (Count)
system.cpu.commitStats0.committedInstType::IntDiv        16639      0.02%     69.82% # Class of committed instruction. (Count)
system.cpu.commitStats0.committedInstType::FloatAdd          328      0.00%     69.82% # Class of committed instruction. (Count)
system.cpu.commitStats0.committedInstType::FloatCmp            0      0.00%     69.82% # Class of committed instruction. (Count)
system.cpu.commitStats0.committedInstType::FloatCvt            0      0.00%     69.82% # Class of committed instruction. (Count)
system.cpu.commitStats0.committedInstType::FloatMult            0      0.00%     69.82% # Class of committed instruction. (Count)
system.cpu.commitStats0.committedInstType::FloatMultAcc            0      0.00%     69.82% # Class of committed instruction. (Count)
system.cpu.commitStats0.committedInstType::FloatDiv            0      0.00%     69.82% # Class of committed instruction. (Count)
system.cpu.commitStats0.committedInstType::FloatMisc            0      0.00%     69.82% # Class of committed instruction. (Count)
system.cpu.commitStats0.committedInstType::FloatSqrt            0      0.00%     69.82% # Class of committed instruction. (Count)
system.cpu.commitStats0.committedInstType::SimdAdd            0      0.00%     69.82% # Class of committed instruction. (Count)
system.cpu.commitStats0.committedInstType::SimdAddAcc            0      0.00%     69.82% # Class of committed instruction. (Count)
system.cpu.commitStats0.committedInstType::SimdAlu         1602      0.00%     69.82% # Class of committed instruction. (Count)
system.cpu.commitStats0.committedInstType::SimdCmp            0      0.00%     69.82% # Class of committed instruction. (Count)
system.cpu.commitStats0.committedInstType::SimdCvt         1814      0.00%     69.82% # Class of committed instruction. (Count)
system.cpu.commitStats0.committedInstType::SimdMisc         3230      0.00%     69.83% # Class of committed instruction. (Count)
system.cpu.commitStats0.committedInstType::SimdMult            0      0.00%     69.83% # Class of committed instruction. (Count)
system.cpu.commitStats0.committedInstType::SimdMultAcc            0      0.00%     69.83% # Class of committed instruction. (Count)
system.cpu.commitStats0.committedInstType::SimdMatMultAcc            0      0.00%     69.83% # Class of committed instruction. (Count)
system.cpu.commitStats0.committedInstType::SimdShift            0      0.00%     69.83% # Class of committed instruction. (Count)
system.cpu.commitStats0.committedInstType::SimdShiftAcc            0      0.00%     69.83% # Class of committed instruction. (Count)
system.cpu.commitStats0.committedInstType::SimdDiv            0      0.00%     69.83% # Class of committed instruction. (Count)
system.cpu.commitStats0.committedInstType::SimdSqrt            0      0.00%     69.83% # Class of committed instruction. (Count)
system.cpu.commitStats0.committedInstType::SimdFloatAdd            0      0.00%     69.83% # Class of committed instruction. (Count)
system.cpu.commitStats0.committedInstType::SimdFloatAlu            0      0.00%     69.83% # Class of committed instruction. (Count)
system.cpu.commitStats0.committedInstType::SimdFloatCmp            0      0.00%     69.83% # Class of committed instruction. (Count)
system.cpu.commitStats0.committedInstType::SimdFloatCvt            0      0.00%     69.83% # Class of committed instruction. (Count)
system.cpu.commitStats0.committedInstType::SimdFloatDiv            0      0.00%     69.83% # Class of committed instruction. (Count)
system.cpu.commitStats0.committedInstType::SimdFloatMisc            0      0.00%     69.83% # Class of committed instruction. (Count)
system.cpu.commitStats0.committedInstType::SimdFloatMult            0      0.00%     69.83% # Class of committed instruction. (Count)
system.cpu.commitStats0.committedInstType::SimdFloatMultAcc            0      0.00%     69.83% # Class of committed instruction. (Count)
system.cpu.commitStats0.committedInstType::SimdFloatMatMultAcc            0      0.00%     69.83% # Class of committed instruction. (Count)
system.cpu.commitStats0.committedInstType::SimdFloatSqrt            0      0.00%     69.83% # Class of committed instruction. (Count)
system.cpu.commitStats0.committedInstType::SimdReduceAdd            0      0.00%     69.83% # Class of committed instruction. (Count)
system.cpu.commitStats0.committedInstType::SimdReduceAlu            0      0.00%     69.83% # Class of committed instruction. (Count)
system.cpu.commitStats0.committedInstType::SimdReduceCmp            0      0.00%     69.83% # Class of committed instruction. (Count)
system.cpu.commitStats0.committedInstType::SimdFloatReduceAdd            0      0.00%     69.83% # Class of committed instruction. (Count)
system.cpu.commitStats0.committedInstType::SimdFloatReduceCmp            0      0.00%     69.83% # Class of committed instruction. (Count)
system.cpu.commitStats0.committedInstType::SimdAes            0      0.00%     69.83% # Class of committed instruction. (Count)
system.cpu.commitStats0.committedInstType::SimdAesMix            0      0.00%     69.83% # Class of committed instruction. (Count)
system.cpu.commitStats0.committedInstType::SimdSha1Hash            0      0.00%     69.83% # Class of committed instruction. (Count)
system.cpu.commitStats0.committedInstType::SimdSha1Hash2            0      0.00%     69.83% # Class of committed instruction. (Count)
system.cpu.commitStats0.committedInstType::SimdSha256Hash            0      0.00%     69.83% # Class of committed instruction. (Count)
system.cpu.commitStats0.committedInstType::SimdSha256Hash2            0      0.00%     69.83% # Class of committed instruction. (Count)
system.cpu.commitStats0.committedInstType::SimdShaSigma2            0      0.00%     69.83% # Class of committed instruction. (Count)
system.cpu.commitStats0.committedInstType::SimdShaSigma3            0      0.00%     69.83% # Class of committed instruction. (Count)
system.cpu.commitStats0.committedInstType::SimdPredAlu            0      0.00%     69.83% # Class of committed instruction. (Count)
system.cpu.commitStats0.committedInstType::Matrix            0      0.00%     69.83% # Class of committed instruction. (Count)
system.cpu.commitStats0.committedInstType::MatrixMov            0      0.00%     69.83% # Class of committed instruction. (Count)
system.cpu.commitStats0.committedInstType::MatrixOP            0      0.00%     69.83% # Class of committed instruction. (Count)
system.cpu.commitStats0.committedInstType::MemRead     14670897     19.43%     89.26% # Class of committed instruction. (Count)
system.cpu.commitStats0.committedInstType::MemWrite      8107712     10.74%    100.00% # Class of committed instruction. (Count)
system.cpu.commitStats0.committedInstType::FloatMemRead          922      0.00%    100.00% # Class of committed instruction. (Count)
system.cpu.commitStats0.committedInstType::FloatMemWrite          160      0.00%    100.00% # Class of committed instruction. (Count)
system.cpu.commitStats0.committedInstType::IprAccess            0      0.00%    100.00% # Class of committed instruction. (Count)
system.cpu.commitStats0.committedInstType::InstPrefetch            0      0.00%    100.00% # Class of committed instruction. (Count)
system.cpu.commitStats0.committedInstType::VectorUnitStrideLoad            0      0.00%    100.00% # Class of committed instruction. (Count)
system.cpu.commitStats0.committedInstType::VectorUnitStrideStore            0      0.00%    100.00% # Class of committed instruction. (Count)
system.cpu.commitStats0.committedInstType::VectorUnitStrideMaskLoad            0      0.00%    100.00% # Class of committed instruction. (Count)
system.cpu.commitStats0.committedInstType::VectorUnitStrideMaskStore            0      0.00%    100.00% # Class of committed instruction. (Count)
system.cpu.commitStats0.committedInstType::VectorStridedLoad            0      0.00%    100.00% # Class of committed instruction. (Count)
system.cpu.commitStats0.committedInstType::VectorStridedStore            0      0.00%    100.00% # Class of committed instruction. (Count)
system.cpu.commitStats0.committedInstType::VectorIndexedLoad            0      0.00%    100.00% # Class of committed instruction. (Count)
system.cpu.commitStats0.committedInstType::VectorIndexedStore            0      0.00%    100.00% # Class of committed instruction. (Count)
system.cpu.commitStats0.committedInstType::VectorUnitStrideFaultOnlyFirstLoad            0      0.00%    100.00% # Class of committed instruction. (Count)
system.cpu.commitStats0.committedInstType::VectorWholeRegisterLoad            0      0.00%    100.00% # Class of committed instruction. (Count)
system.cpu.commitStats0.committedInstType::VectorWholeRegisterStore            0      0.00%    100.00% # Class of committed instruction. (Count)
system.cpu.commitStats0.committedInstType::VectorIntegerArith            0      0.00%    100.00% # Class of committed instruction. (Count)
system.cpu.commitStats0.committedInstType::VectorFloatArith            0      0.00%    100.00% # Class of committed instruction. (Count)
system.cpu.commitStats0.committedInstType::VectorFloatConvert            0      0.00%    100.00% # Class of committed instruction. (Count)
system.cpu.commitStats0.committedInstType::VectorIntegerReduce            0      0.00%    100.00% # Class of committed instruction. (Count)
system.cpu.commitStats0.committedInstType::VectorFloatReduce            0      0.00%    100.00% # Class of committed instruction. (Count)
system.cpu.commitStats0.committedInstType::VectorMisc            0      0.00%    100.00% # Class of committed instruction. (Count)
system.cpu.commitStats0.committedInstType::VectorIntegerExtension            0      0.00%    100.00% # Class of committed instruction. (Count)
system.cpu.commitStats0.committedInstType::VectorConfig            0      0.00%    100.00% # Class of committed instruction. (Count)
system.cpu.commitStats0.committedInstType::total     75500804                       # Class of committed instruction. (Count)
system.cpu.commitStats0.committedControl::IsControl      6009816                       # Class of control type instructions committed (Count)
system.cpu.commitStats0.committedControl::IsDirectControl      5972287                       # Class of control type instructions committed (Count)
system.cpu.commitStats0.committedControl::IsIndirectControl        37529                       # Class of control type instructions committed (Count)
system.cpu.commitStats0.committedControl::IsCondControl      5726110                       # Class of control type instructions committed (Count)
system.cpu.commitStats0.committedControl::IsUncondControl       283706                       # Class of control type instructions committed (Count)
system.cpu.commitStats0.committedControl::IsCall        36510                       # Class of control type instructions committed (Count)
system.cpu.commitStats0.committedControl::IsReturn        36505                       # Class of control type instructions committed (Count)
system.cpu.dcache.demandHits::cpu.data       12418456                       # number of demand (read+write) hits (Count)
system.cpu.dcache.demandHits::total          12418456                       # number of demand (read+write) hits (Count)
system.cpu.dcache.overallHits::cpu.data      12418456                       # number of overall hits (Count)
system.cpu.dcache.overallHits::total         12418456                       # number of overall hits (Count)
system.cpu.dcache.demandMisses::cpu.data       350631                       # number of demand (read+write) misses (Count)
system.cpu.dcache.demandMisses::total          350631                       # number of demand (read+write) misses (Count)
system.cpu.dcache.overallMisses::cpu.data       350631                       # number of overall misses (Count)
system.cpu.dcache.overallMisses::total         350631                       # number of overall misses (Count)
system.cpu.dcache.demandMissLatency::cpu.data  33807772999                       # number of demand (read+write) miss ticks (Tick)
system.cpu.dcache.demandMissLatency::total  33807772999                       # number of demand (read+write) miss ticks (Tick)
system.cpu.dcache.overallMissLatency::cpu.data  33807772999                       # number of overall miss ticks (Tick)
system.cpu.dcache.overallMissLatency::total  33807772999                       # number of overall miss ticks (Tick)
system.cpu.dcache.demandAccesses::cpu.data     12769087                       # number of demand (read+write) accesses (Count)
system.cpu.dcache.demandAccesses::total      12769087                       # number of demand (read+write) accesses (Count)
system.cpu.dcache.overallAccesses::cpu.data     12769087                       # number of overall (read+write) accesses (Count)
system.cpu.dcache.overallAccesses::total     12769087                       # number of overall (read+write) accesses (Count)
system.cpu.dcache.demandMissRate::cpu.data     0.027459                       # miss rate for demand accesses (Ratio)
system.cpu.dcache.demandMissRate::total      0.027459                       # miss rate for demand accesses (Ratio)
system.cpu.dcache.overallMissRate::cpu.data     0.027459                       # miss rate for overall accesses (Ratio)
system.cpu.dcache.overallMissRate::total     0.027459                       # miss rate for overall accesses (Ratio)
system.cpu.dcache.demandAvgMissLatency::cpu.data 96419.806004                       # average overall miss latency in ticks ((Tick/Count))
system.cpu.dcache.demandAvgMissLatency::total 96419.806004                       # average overall miss latency in ticks ((Tick/Count))
system.cpu.dcache.overallAvgMissLatency::cpu.data 96419.806004                       # average overall miss latency ((Tick/Count))
system.cpu.dcache.overallAvgMissLatency::total 96419.806004                       # average overall miss latency ((Tick/Count))
system.cpu.dcache.blockedCycles::no_mshrs          262                       # number of cycles access was blocked (Cycle)
system.cpu.dcache.blockedCycles::no_targets            0                       # number of cycles access was blocked (Cycle)
system.cpu.dcache.blockedCauses::no_mshrs            7                       # number of times access was blocked (Count)
system.cpu.dcache.blockedCauses::no_targets            0                       # number of times access was blocked (Count)
system.cpu.dcache.avgBlocked::no_mshrs      37.428571                       # average number of cycles each access was blocked ((Cycle/Count))
system.cpu.dcache.avgBlocked::no_targets          nan                       # average number of cycles each access was blocked ((Cycle/Count))
system.cpu.dcache.writebacks::writebacks         4908                       # number of writebacks (Count)
system.cpu.dcache.writebacks::total              4908                       # number of writebacks (Count)
system.cpu.dcache.demandMshrHits::cpu.data        14996                       # number of demand (read+write) MSHR hits (Count)
system.cpu.dcache.demandMshrHits::total         14996                       # number of demand (read+write) MSHR hits (Count)
system.cpu.dcache.overallMshrHits::cpu.data        14996                       # number of overall MSHR hits (Count)
system.cpu.dcache.overallMshrHits::total        14996                       # number of overall MSHR hits (Count)
system.cpu.dcache.demandMshrMisses::cpu.data       335635                       # number of demand (read+write) MSHR misses (Count)
system.cpu.dcache.demandMshrMisses::total       335635                       # number of demand (read+write) MSHR misses (Count)
system.cpu.dcache.overallMshrMisses::cpu.data       335635                       # number of overall MSHR misses (Count)
system.cpu.dcache.overallMshrMisses::total       335635                       # number of overall MSHR misses (Count)
system.cpu.dcache.demandMshrMissLatency::cpu.data  32906138000                       # number of demand (read+write) MSHR miss ticks (Tick)
system.cpu.dcache.demandMshrMissLatency::total  32906138000                       # number of demand (read+write) MSHR miss ticks (Tick)
system.cpu.dcache.overallMshrMissLatency::cpu.data  32906138000                       # number of overall MSHR miss ticks (Tick)
system.cpu.dcache.overallMshrMissLatency::total  32906138000                       # number of overall MSHR miss ticks (Tick)
system.cpu.dcache.demandMshrMissRate::cpu.data     0.026285                       # mshr miss ratio for demand accesses (Ratio)
system.cpu.dcache.demandMshrMissRate::total     0.026285                       # mshr miss ratio for demand accesses (Ratio)
system.cpu.dcache.overallMshrMissRate::cpu.data     0.026285                       # mshr miss ratio for overall accesses (Ratio)
system.cpu.dcache.overallMshrMissRate::total     0.026285                       # mshr miss ratio for overall accesses (Ratio)
system.cpu.dcache.demandAvgMshrMissLatency::cpu.data 98041.437871                       # average overall mshr miss latency ((Tick/Count))
system.cpu.dcache.demandAvgMshrMissLatency::total 98041.437871                       # average overall mshr miss latency ((Tick/Count))
system.cpu.dcache.overallAvgMshrMissLatency::cpu.data 98041.437871                       # average overall mshr miss latency ((Tick/Count))
system.cpu.dcache.overallAvgMshrMissLatency::total 98041.437871                       # average overall mshr miss latency ((Tick/Count))
system.cpu.dcache.replacements                 158802                       # number of replacements (Count)
system.cpu.dcache.CleanInvalidReq.missLatency::cpu.data   9494261000                       # number of CleanInvalidReq miss ticks (Tick)
system.cpu.dcache.CleanInvalidReq.missLatency::total   9494261000                       # number of CleanInvalidReq miss ticks (Tick)
system.cpu.dcache.CleanInvalidReq.avgMissLatency::cpu.data          inf                       # average CleanInvalidReq miss latency ((Tick/Count))
system.cpu.dcache.CleanInvalidReq.avgMissLatency::total          inf                       # average CleanInvalidReq miss latency ((Tick/Count))
system.cpu.dcache.CleanInvalidReq.mshrMisses::cpu.data       327756                       # number of CleanInvalidReq MSHR misses (Count)
system.cpu.dcache.CleanInvalidReq.mshrMisses::total       327756                       # number of CleanInvalidReq MSHR misses (Count)
system.cpu.dcache.CleanInvalidReq.mshrMissLatency::cpu.data  17043887000                       # number of CleanInvalidReq MSHR miss ticks (Tick)
system.cpu.dcache.CleanInvalidReq.mshrMissLatency::total  17043887000                       # number of CleanInvalidReq MSHR miss ticks (Tick)
system.cpu.dcache.CleanInvalidReq.mshrMissRate::cpu.data          inf                       # mshr miss rate for CleanInvalidReq accesses (Ratio)
system.cpu.dcache.CleanInvalidReq.mshrMissRate::total          inf                       # mshr miss rate for CleanInvalidReq accesses (Ratio)
system.cpu.dcache.CleanInvalidReq.avgMshrMissLatency::cpu.data 52001.754354                       # average CleanInvalidReq mshr miss latency ((Tick/Count))
system.cpu.dcache.CleanInvalidReq.avgMshrMissLatency::total 52001.754354                       # average CleanInvalidReq mshr miss latency ((Tick/Count))
system.cpu.dcache.ReadReq.hits::cpu.data      4640567                       # number of ReadReq hits (Count)
system.cpu.dcache.ReadReq.hits::total         4640567                       # number of ReadReq hits (Count)
system.cpu.dcache.ReadReq.misses::cpu.data       348364                       # number of ReadReq misses (Count)
system.cpu.dcache.ReadReq.misses::total        348364                       # number of ReadReq misses (Count)
system.cpu.dcache.ReadReq.missLatency::cpu.data  33587151000                       # number of ReadReq miss ticks (Tick)
system.cpu.dcache.ReadReq.missLatency::total  33587151000                       # number of ReadReq miss ticks (Tick)
system.cpu.dcache.ReadReq.accesses::cpu.data      4988931                       # number of ReadReq accesses(hits+misses) (Count)
system.cpu.dcache.ReadReq.accesses::total      4988931                       # number of ReadReq accesses(hits+misses) (Count)
system.cpu.dcache.ReadReq.missRate::cpu.data     0.069827                       # miss rate for ReadReq accesses (Ratio)
system.cpu.dcache.ReadReq.missRate::total     0.069827                       # miss rate for ReadReq accesses (Ratio)
system.cpu.dcache.ReadReq.avgMissLatency::cpu.data 96413.954944                       # average ReadReq miss latency ((Tick/Count))
system.cpu.dcache.ReadReq.avgMissLatency::total 96413.954944                       # average ReadReq miss latency ((Tick/Count))
system.cpu.dcache.ReadReq.mshrHits::cpu.data        14994                       # number of ReadReq MSHR hits (Count)
system.cpu.dcache.ReadReq.mshrHits::total        14994                       # number of ReadReq MSHR hits (Count)
system.cpu.dcache.ReadReq.mshrMisses::cpu.data       333370                       # number of ReadReq MSHR misses (Count)
system.cpu.dcache.ReadReq.mshrMisses::total       333370                       # number of ReadReq MSHR misses (Count)
system.cpu.dcache.ReadReq.mshrMissLatency::cpu.data  32690220000                       # number of ReadReq MSHR miss ticks (Tick)
system.cpu.dcache.ReadReq.mshrMissLatency::total  32690220000                       # number of ReadReq MSHR miss ticks (Tick)
system.cpu.dcache.ReadReq.mshrMissRate::cpu.data     0.066822                       # mshr miss rate for ReadReq accesses (Ratio)
system.cpu.dcache.ReadReq.mshrMissRate::total     0.066822                       # mshr miss rate for ReadReq accesses (Ratio)
system.cpu.dcache.ReadReq.avgMshrMissLatency::cpu.data 98059.873414                       # average ReadReq mshr miss latency ((Tick/Count))
system.cpu.dcache.ReadReq.avgMshrMissLatency::total 98059.873414                       # average ReadReq mshr miss latency ((Tick/Count))
system.cpu.dcache.WriteReq.hits::cpu.data      7777889                       # number of WriteReq hits (Count)
system.cpu.dcache.WriteReq.hits::total        7777889                       # number of WriteReq hits (Count)
system.cpu.dcache.WriteReq.misses::cpu.data         2267                       # number of WriteReq misses (Count)
system.cpu.dcache.WriteReq.misses::total         2267                       # number of WriteReq misses (Count)
system.cpu.dcache.WriteReq.missLatency::cpu.data    220621999                       # number of WriteReq miss ticks (Tick)
system.cpu.dcache.WriteReq.missLatency::total    220621999                       # number of WriteReq miss ticks (Tick)
system.cpu.dcache.WriteReq.accesses::cpu.data      7780156                       # number of WriteReq accesses(hits+misses) (Count)
system.cpu.dcache.WriteReq.accesses::total      7780156                       # number of WriteReq accesses(hits+misses) (Count)
system.cpu.dcache.WriteReq.missRate::cpu.data     0.000291                       # miss rate for WriteReq accesses (Ratio)
system.cpu.dcache.WriteReq.missRate::total     0.000291                       # miss rate for WriteReq accesses (Ratio)
system.cpu.dcache.WriteReq.avgMissLatency::cpu.data 97318.923247                       # average WriteReq miss latency ((Tick/Count))
system.cpu.dcache.WriteReq.avgMissLatency::total 97318.923247                       # average WriteReq miss latency ((Tick/Count))
system.cpu.dcache.WriteReq.mshrHits::cpu.data            2                       # number of WriteReq MSHR hits (Count)
system.cpu.dcache.WriteReq.mshrHits::total            2                       # number of WriteReq MSHR hits (Count)
system.cpu.dcache.WriteReq.mshrMisses::cpu.data         2265                       # number of WriteReq MSHR misses (Count)
system.cpu.dcache.WriteReq.mshrMisses::total         2265                       # number of WriteReq MSHR misses (Count)
system.cpu.dcache.WriteReq.mshrMissLatency::cpu.data    215918000                       # number of WriteReq MSHR miss ticks (Tick)
system.cpu.dcache.WriteReq.mshrMissLatency::total    215918000                       # number of WriteReq MSHR miss ticks (Tick)
system.cpu.dcache.WriteReq.mshrMissRate::cpu.data     0.000291                       # mshr miss rate for WriteReq accesses (Ratio)
system.cpu.dcache.WriteReq.mshrMissRate::total     0.000291                       # mshr miss rate for WriteReq accesses (Ratio)
system.cpu.dcache.WriteReq.avgMshrMissLatency::cpu.data 95328.035320                       # average WriteReq mshr miss latency ((Tick/Count))
system.cpu.dcache.WriteReq.avgMshrMissLatency::total 95328.035320                       # average WriteReq mshr miss latency ((Tick/Count))
system.cpu.dcache.power_state.pwrStateResidencyTicks::UNDEFINED 100368037000                       # Cumulative time (in ticks) in various power states (Tick)
system.cpu.dcache.tags.tagsInUse           965.075255                       # Average ticks per tags in use ((Tick/Count))
system.cpu.dcache.tags.totalRefs             12929900                       # Total number of references to valid blocks. (Count)
system.cpu.dcache.tags.sampledRefs             335635                       # Sample count of references to valid blocks. (Count)
system.cpu.dcache.tags.avgRefs              38.523694                       # Average number of references to valid blocks. ((Count/Count))
system.cpu.dcache.tags.warmupTick              222000                       # The tick when the warmup percentage was hit. (Tick)
system.cpu.dcache.tags.occupancies::cpu.data   965.075255                       # Average occupied blocks per tick, per requestor ((Count/Tick))
system.cpu.dcache.tags.avgOccs::cpu.data     0.942456                       # Average percentage of cache occupancy ((Ratio/Tick))
system.cpu.dcache.tags.avgOccs::total        0.942456                       # Average percentage of cache occupancy ((Ratio/Tick))
system.cpu.dcache.tags.occupanciesTaskId::1024         1024                       # Occupied blocks per task id (Count)
system.cpu.dcache.tags.ageTaskId_1024::0           43                       # Occupied blocks per task id, per block age (Count)
system.cpu.dcache.tags.ageTaskId_1024::1          105                       # Occupied blocks per task id, per block age (Count)
system.cpu.dcache.tags.ageTaskId_1024::4          876                       # Occupied blocks per task id, per block age (Count)
system.cpu.dcache.tags.ratioOccsTaskId::1024            1                       # Ratio of occupied blocks and all blocks, per task id (Ratio)
system.cpu.dcache.tags.tagAccesses           26529321                       # Number of tag accesses (Count)
system.cpu.dcache.tags.dataAccesses          26529321                       # Number of data accesses (Count)
system.cpu.dcache.tags.power_state.pwrStateResidencyTicks::UNDEFINED 100368037000                       # Cumulative time (in ticks) in various power states (Tick)
system.cpu.decode.idleCycles                  5222068                       # Number of cycles decode is idle (Cycle)
system.cpu.decode.blockedCycles              79266651                       # Number of cycles decode is blocked (Cycle)
system.cpu.decode.runCycles                   8251571                       # Number of cycles decode is running (Cycle)
system.cpu.decode.unblockCycles               7225818                       # Number of cycles decode is unblocking (Cycle)
system.cpu.decode.squashCycles                 376764                       # Number of cycles decode is squashing (Cycle)
system.cpu.decode.branchResolved              7459000                       # Number of times decode resolved a branch (Count)
system.cpu.decode.branchMispred                   538                       # Number of times decode detected a branch misprediction (Count)
system.cpu.decode.decodedInsts              110749004                       # Number of instructions handled by decode (Count)
system.cpu.decode.squashedInsts                  2435                       # Number of squashed instructions handled by decode (Count)
system.cpu.executeStats0.numInsts            88349557                       # Number of executed instructions (Count)
system.cpu.executeStats0.numNop                     0                       # Number of nop insts executed (Count)
system.cpu.executeStats0.numBranches          6496445                       # Number of branches executed (Count)
system.cpu.executeStats0.numLoadInsts        16156962                       # Number of load instructions executed (Count)
system.cpu.executeStats0.numStoreInsts        8490197                       # Number of stores executed (Count)
system.cpu.executeStats0.instRate            0.880256                       # Inst execution rate ((Count/Cycle))
system.cpu.executeStats0.numCCRegReads       33673550                       # Number of times the CC registers were read (Count)
system.cpu.executeStats0.numCCRegWrites      30105136                       # Number of times the CC registers were written (Count)
system.cpu.executeStats0.numFpRegReads          17511                       # Number of times the floating registers were read (Count)
system.cpu.executeStats0.numFpRegWrites          8347                       # Number of times the floating registers were written (Count)
system.cpu.executeStats0.numIntRegReads      91240709                       # Number of times the integer registers were read (Count)
system.cpu.executeStats0.numIntRegWrites     66301300                       # Number of times the integer registers were written (Count)
system.cpu.executeStats0.numMemRefs          24647159                       # Number of memory refs (Count)
system.cpu.executeStats0.numMiscRegReads     40522580                       # Number of times the Misc registers were read (Count)
system.cpu.executeStats0.numVecAluAccesses            0                       # Number of vector alu accesses (Count)
system.cpu.executeStats0.numDiscardedOps            0                       # Number of ops (including micro ops) which were discarded before commit (Count)
system.cpu.fetch.predictedBranches            8331710                       # Number of branches that fetch has predicted taken (Count)
system.cpu.fetch.cycles                      92849174                       # Number of cycles fetch has run and was not squashing or blocked (Cycle)
system.cpu.fetch.squashCycles                  754554                       # Number of cycles fetch has spent squashing (Cycle)
system.cpu.fetch.miscStallCycles                   42                       # Number of cycles fetch has spent waiting on interrupts, or bad addresses, or out of MSHRs (Cycle)
system.cpu.fetch.pendingTrapStallCycles           333                       # Number of stall cycles due to pending traps (Cycle)
system.cpu.fetch.icacheWaitRetryStallCycles           17                       # Number of stall cycles due to full MSHR (Cycle)
system.cpu.fetch.cacheLines                   7064702                       # Number of cache lines fetched (Count)
system.cpu.fetch.icacheSquashes                  4174                       # Number of outstanding Icache misses that were squashed (Count)
system.cpu.fetch.nisnDist::samples          100342872                       # Number of instructions fetched each cycle (Total) (Count)
system.cpu.fetch.nisnDist::mean              1.221444                       # Number of instructions fetched each cycle (Total) (Count)
system.cpu.fetch.nisnDist::stdev             2.580749                       # Number of instructions fetched each cycle (Total) (Count)
system.cpu.fetch.nisnDist::underflows               0      0.00%      0.00% # Number of instructions fetched each cycle (Total) (Count)
system.cpu.fetch.nisnDist::0                 77705148     77.44%     77.44% # Number of instructions fetched each cycle (Total) (Count)
system.cpu.fetch.nisnDist::1                   214711      0.21%     77.65% # Number of instructions fetched each cycle (Total) (Count)
system.cpu.fetch.nisnDist::2                  4839253      4.82%     82.48% # Number of instructions fetched each cycle (Total) (Count)
system.cpu.fetch.nisnDist::3                  3530838      3.52%     86.00% # Number of instructions fetched each cycle (Total) (Count)
[...]
system.mem_ctrl.dram.numReads::cpu.data        330047                       # Number of read requests responded to by this memory (Count)
system.mem_ctrl.dram.numReads::total           330625                       # Number of read requests responded to by this memory (Count)
system.mem_ctrl.dram.numWrites::writebacks          259                       # Number of write requests responded to by this memory (Count)
system.mem_ctrl.dram.numWrites::total             259                       # Number of write requests responded to by this memory (Count)
system.mem_ctrl.dram.bwRead::cpu.inst          368564                       # Total read bandwidth from this memory ((Byte/Second))
system.mem_ctrl.dram.bwRead::cpu.data       210455526                       # Total read bandwidth from this memory ((Byte/Second))
system.mem_ctrl.dram.bwRead::total          210824089                       # Total read bandwidth from this memory ((Byte/Second))
system.mem_ctrl.dram.bwInstRead::cpu.inst       368564                       # Instruction read bandwidth from this memory ((Byte/Second))
system.mem_ctrl.dram.bwInstRead::total         368564                       # Instruction read bandwidth from this memory ((Byte/Second))
system.mem_ctrl.dram.bwWrite::writebacks       165152                       # Write bandwidth from this memory ((Byte/Second))
system.mem_ctrl.dram.bwWrite::total            165152                       # Write bandwidth from this memory ((Byte/Second))
system.mem_ctrl.dram.bwTotal::writebacks       165152                       # Total bandwidth to/from this memory ((Byte/Second))
system.mem_ctrl.dram.bwTotal::cpu.inst         368564                       # Total bandwidth to/from this memory ((Byte/Second))
system.mem_ctrl.dram.bwTotal::cpu.data      210455526                       # Total bandwidth to/from this memory ((Byte/Second))
system.mem_ctrl.dram.bwTotal::total         210989242                       # Total bandwidth to/from this memory ((Byte/Second))
system.mem_ctrl.dram.readBursts                305413                       # Number of DRAM read bursts (Count)
system.mem_ctrl.dram.writeBursts                  234                       # Number of DRAM write bursts (Count)
system.mem_ctrl.dram.perBankRdBursts::0         18553                       # Per bank write bursts (Count)
system.mem_ctrl.dram.perBankRdBursts::1         18503                       # Per bank write bursts (Count)
system.mem_ctrl.dram.perBankRdBursts::2         18511                       # Per bank write bursts (Count)
system.mem_ctrl.dram.perBankRdBursts::3         18480                       # Per bank write bursts (Count)
system.mem_ctrl.dram.perBankRdBursts::4         18464                       # Per bank write bursts (Count)
system.mem_ctrl.dram.perBankRdBursts::5         18479                       # Per bank write bursts (Count)
system.mem_ctrl.dram.perBankRdBursts::6         38051                       # Per bank write bursts (Count)
system.mem_ctrl.dram.perBankRdBursts::7          8211                       # Per bank write bursts (Count)
system.mem_ctrl.dram.perBankRdBursts::8         18509                       # Per bank write bursts (Count)
system.mem_ctrl.dram.perBankRdBursts::9         18524                       # Per bank write bursts (Count)
system.mem_ctrl.dram.perBankRdBursts::10        18567                       # Per bank write bursts (Count)
system.mem_ctrl.dram.perBankRdBursts::11        18546                       # Per bank write bursts (Count)
system.mem_ctrl.dram.perBankRdBursts::12        18491                       # Per bank write bursts (Count)
system.mem_ctrl.dram.perBankRdBursts::13        18517                       # Per bank write bursts (Count)
system.mem_ctrl.dram.perBankRdBursts::14        18491                       # Per bank write bursts (Count)
system.mem_ctrl.dram.perBankRdBursts::15        18516                       # Per bank write bursts (Count)
system.mem_ctrl.dram.perBankWrBursts::0            16                       # Per bank write bursts (Count)
system.mem_ctrl.dram.perBankWrBursts::1            16                       # Per bank write bursts (Count)
system.mem_ctrl.dram.perBankWrBursts::2            16                       # Per bank write bursts (Count)
system.mem_ctrl.dram.perBankWrBursts::3            16                       # Per bank write bursts (Count)
system.mem_ctrl.dram.perBankWrBursts::4            16                       # Per bank write bursts (Count)
system.mem_ctrl.dram.perBankWrBursts::5            16                       # Per bank write bursts (Count)
system.mem_ctrl.dram.perBankWrBursts::6             3                       # Per bank write bursts (Count)
system.mem_ctrl.dram.perBankWrBursts::7             7                       # Per bank write bursts (Count)
system.mem_ctrl.dram.perBankWrBursts::8            16                       # Per bank write bursts (Count)
system.mem_ctrl.dram.perBankWrBursts::9            16                       # Per bank write bursts (Count)
system.mem_ctrl.dram.perBankWrBursts::10           16                       # Per bank write bursts (Count)
system.mem_ctrl.dram.perBankWrBursts::11           16                       # Per bank write bursts (Count)
system.mem_ctrl.dram.perBankWrBursts::12           16                       # Per bank write bursts (Count)
system.mem_ctrl.dram.perBankWrBursts::13           16                       # Per bank write bursts (Count)
system.mem_ctrl.dram.perBankWrBursts::14           16                       # Per bank write bursts (Count)
system.mem_ctrl.dram.perBankWrBursts::15           16                       # Per bank write bursts (Count)
system.mem_ctrl.dram.totQLat               2788671750                       # Total ticks spent queuing (Tick)
system.mem_ctrl.dram.totBusLat             1527065000                       # Total ticks spent in databus transfers (Tick)
system.mem_ctrl.dram.totMemAccLat          8515165500                       # Total ticks spent from burst creation until serviced by the DRAM (Tick)
system.mem_ctrl.dram.avgQLat                  9130.82                       # Average queueing delay per DRAM burst ((Tick/Count))
system.mem_ctrl.dram.avgBusLat                5000.00                       # Average bus latency per DRAM burst ((Tick/Count))
system.mem_ctrl.dram.avgMemAccLat            27880.82                       # Average memory access latency per DRAM burst ((Tick/Count))
system.mem_ctrl.dram.readRowHits               199979                       # Number of row buffer hits during reads (Count)
system.mem_ctrl.dram.writeRowHits                 216                       # Number of row buffer hits during writes (Count)
system.mem_ctrl.dram.readRowHitRate             65.48                       # Row buffer hit rate for reads (Ratio)
system.mem_ctrl.dram.writeRowHitRate            92.31                       # Row buffer hit rate for writes (Ratio)
system.mem_ctrl.dram.bytesPerActivate::samples       105445                       # Bytes accessed per row activation (Byte)
system.mem_ctrl.dram.bytesPerActivate::mean   185.500156                       # Bytes accessed per row activation (Byte)
system.mem_ctrl.dram.bytesPerActivate::gmean   160.199385                       # Bytes accessed per row activation (Byte)
system.mem_ctrl.dram.bytesPerActivate::stdev   118.366744                       # Bytes accessed per row activation (Byte)
system.mem_ctrl.dram.bytesPerActivate::0-127        14885     14.12%     14.12% # Bytes accessed per row activation (Byte)
system.mem_ctrl.dram.bytesPerActivate::128-255        58651     55.62%     69.74% # Bytes accessed per row activation (Byte)
system.mem_ctrl.dram.bytesPerActivate::256-383        28769     27.28%     97.02% # Bytes accessed per row activation (Byte)
system.mem_ctrl.dram.bytesPerActivate::384-511          439      0.42%     97.44% # Bytes accessed per row activation (Byte)
system.mem_ctrl.dram.bytesPerActivate::512-639          420      0.40%     97.84% # Bytes accessed per row activation (Byte)
system.mem_ctrl.dram.bytesPerActivate::640-767          405      0.38%     98.22% # Bytes accessed per row activation (Byte)
system.mem_ctrl.dram.bytesPerActivate::768-895         1760      1.67%     99.89% # Bytes accessed per row activation (Byte)
system.mem_ctrl.dram.bytesPerActivate::896-1023            7      0.01%     99.90% # Bytes accessed per row activation (Byte)
system.mem_ctrl.dram.bytesPerActivate::1024-1151          109      0.10%    100.00% # Bytes accessed per row activation (Byte)
system.mem_ctrl.dram.bytesPerActivate::total       105445                       # Bytes accessed per row activation (Byte)
system.mem_ctrl.dram.bytesRead               19546432                       # Total bytes read (Byte)
system.mem_ctrl.dram.bytesWritten               14976                       # Total bytes written (Byte)
system.mem_ctrl.dram.avgRdBW               194.747577                       # Average DRAM read bandwidth in MiBytes/s ((Byte/Second))
system.mem_ctrl.dram.avgWrBW                 0.149211                       # Average DRAM write bandwidth in MiBytes/s ((Byte/Second))
system.mem_ctrl.dram.peakBW                  12800.00                       # Theoretical peak bandwidth in MiByte/s ((Byte/Second))
system.mem_ctrl.dram.busUtil                     1.52                       # Data bus utilization in percentage (Ratio)
system.mem_ctrl.dram.busUtilRead                 1.52                       # Data bus utilization in percentage for reads (Ratio)
system.mem_ctrl.dram.busUtilWrite                0.00                       # Data bus utilization in percentage for writes (Ratio)
system.mem_ctrl.dram.pageHitRate                65.50                       # Row buffer hit rate, read and write combined (Ratio)
system.mem_ctrl.dram.power_state.pwrStateResidencyTicks::UNDEFINED 100368037000                       # Cumulative time (in ticks) in various power states (Tick)
system.mem_ctrl.dram.rank0.actEnergy        365396640                       # Energy for activate commands per rank (pJ) (Joule)
system.mem_ctrl.dram.rank0.preEnergy        194197740                       # Energy for precharge commands per rank (pJ) (Joule)
system.mem_ctrl.dram.rank0.readEnergy      1122779280                       # Energy for read commands per rank (pJ) (Joule)
system.mem_ctrl.dram.rank0.writeEnergy         553320                       # Energy for write commands per rank (pJ) (Joule)
system.mem_ctrl.dram.rank0.refreshEnergy 7922709600.000001                       # Energy for refresh commands per rank (pJ) (Joule)
system.mem_ctrl.dram.rank0.actBackEnergy  32685656490                       # Energy for active background per rank (pJ) (Joule)
system.mem_ctrl.dram.rank0.preBackEnergy  11016563040                       # Energy for precharge background per rank (pJ) (Joule)
system.mem_ctrl.dram.rank0.actPowerDownEnergy            0                       # Energy for active power-down per rank (pJ) (Joule)
system.mem_ctrl.dram.rank0.prePowerDownEnergy            0                       # Energy for precharge power-down per rank (pJ) (Joule)
system.mem_ctrl.dram.rank0.selfRefreshEnergy            0                       # Energy for self refresh per rank (pJ) (Joule)
system.mem_ctrl.dram.rank0.totalEnergy    53307856110                       # Total energy per rank (pJ) (Joule)
system.mem_ctrl.dram.rank0.averagePower    531.123829                       # Core power per rank (mW) (Watt)
system.mem_ctrl.dram.rank0.totalIdleTime            0                       # Total Idle time Per DRAM Rank (Tick)
system.mem_ctrl.dram.rank0.pwrStateTime::IDLE  28373126000                       # Time in different power states (Tick)
system.mem_ctrl.dram.rank0.pwrStateTime::REF   3351400000                       # Time in different power states (Tick)
system.mem_ctrl.dram.rank0.pwrStateTime::SREF            0                       # Time in different power states (Tick)
system.mem_ctrl.dram.rank0.pwrStateTime::PRE_PDN            0                       # Time in different power states (Tick)
system.mem_ctrl.dram.rank0.pwrStateTime::ACT  68643511000                       # Time in different power states (Tick)
system.mem_ctrl.dram.rank0.pwrStateTime::ACT_PDN            0                       # Time in different power states (Tick)
system.mem_ctrl.dram.rank1.actEnergy        387530640                       # Energy for activate commands per rank (pJ) (Joule)
system.mem_ctrl.dram.rank1.preEnergy        205966035                       # Energy for precharge commands per rank (pJ) (Joule)
system.mem_ctrl.dram.rank1.readEnergy      1057869540                       # Energy for read commands per rank (pJ) (Joule)
system.mem_ctrl.dram.rank1.writeEnergy         668160                       # Energy for write commands per rank (pJ) (Joule)
system.mem_ctrl.dram.rank1.refreshEnergy 7922709600.000001                       # Energy for refresh commands per rank (pJ) (Joule)
system.mem_ctrl.dram.rank1.actBackEnergy  25299418080                       # Energy for active background per rank (pJ) (Joule)
system.mem_ctrl.dram.rank1.preBackEnergy  17236553280                       # Energy for precharge background per rank (pJ) (Joule)
system.mem_ctrl.dram.rank1.actPowerDownEnergy            0                       # Energy for active power-down per rank (pJ) (Joule)
system.mem_ctrl.dram.rank1.prePowerDownEnergy            0                       # Energy for precharge power-down per rank (pJ) (Joule)
system.mem_ctrl.dram.rank1.selfRefreshEnergy            0                       # Energy for self refresh per rank (pJ) (Joule)
system.mem_ctrl.dram.rank1.totalEnergy    52110715335                       # Total energy per rank (pJ) (Joule)
system.mem_ctrl.dram.rank1.averagePower    519.196319                       # Core power per rank (mW) (Watt)
system.mem_ctrl.dram.rank1.totalIdleTime            0                       # Total Idle time Per DRAM Rank (Tick)
system.mem_ctrl.dram.rank1.pwrStateTime::IDLE  44597013500                       # Time in different power states (Tick)
system.mem_ctrl.dram.rank1.pwrStateTime::REF   3351400000                       # Time in different power states (Tick)
system.mem_ctrl.dram.rank1.pwrStateTime::SREF            0                       # Time in different power states (Tick)
system.mem_ctrl.dram.rank1.pwrStateTime::PRE_PDN            0                       # Time in different power states (Tick)
system.mem_ctrl.dram.rank1.pwrStateTime::ACT  52419623500                       # Time in different power states (Tick)
system.mem_ctrl.dram.rank1.pwrStateTime::ACT_PDN            0                       # Time in different power states (Tick)
system.mem_ctrl.power_state.pwrStateResidencyTicks::UNDEFINED 100368037000                       # Cumulative time (in ticks) in various power states (Tick)
system.membus.transDist::ReadResp              328446                       # Transaction distribution (Count)
system.membus.transDist::WritebackDirty             3                       # Transaction distribution (Count)
system.membus.transDist::WriteClean               256                       # Transaction distribution (Count)
system.membus.transDist::CleanEvict                 3                       # Transaction distribution (Count)
system.membus.transDist::ReadExReq               2179                       # Transaction distribution (Count)
system.membus.transDist::ReadExResp              2179                       # Transaction distribution (Count)
system.membus.transDist::ReadSharedReq         328446                       # Transaction distribution (Count)
system.membus.transDist::CleanInvalidReq       327756                       # Transaction distribution (Count)
system.membus.pktCount_system.l2cache.mem_side_port::system.mem_ctrl.port       989268                       # Packet count per connected requestor and responder (Count)
system.membus.pktCount_system.l2cache.mem_side_port::total       989268                       # Packet count per connected requestor and responder (Count)
system.membus.pktCount::total                  989268                       # Packet count per connected requestor and responder (Count)
system.membus.pktSize_system.l2cache.mem_side_port::system.mem_ctrl.port     21176576                       # Cumulative packet size per connected requestor and responder (Byte)
system.membus.pktSize_system.l2cache.mem_side_port::total     21176576                       # Cumulative packet size per connected requestor and responder (Byte)
system.membus.pktSize::total                 21176576                       # Cumulative packet size per connected requestor and responder (Byte)
system.membus.snoops                                0                       # Total snoops (Count)
system.membus.snoopTraffic                          0                       # Total snoop traffic (Byte)
system.membus.snoopFanout::samples             658381                       # Request fanout histogram (Count)
system.membus.snoopFanout::mean                     0                       # Request fanout histogram (Count)
system.membus.snoopFanout::stdev                    0                       # Request fanout histogram (Count)
system.membus.snoopFanout::underflows               0      0.00%      0.00% # Request fanout histogram (Count)
system.membus.snoopFanout::0                   658381    100.00%    100.00% # Request fanout histogram (Count)
system.membus.snoopFanout::1                        0      0.00%    100.00% # Request fanout histogram (Count)
system.membus.snoopFanout::overflows                0      0.00%    100.00% # Request fanout histogram (Count)
system.membus.snoopFanout::min_value                0                       # Request fanout histogram (Count)
system.membus.snoopFanout::max_value                0                       # Request fanout histogram (Count)
system.membus.snoopFanout::total               658381                       # Request fanout histogram (Count)
system.membus.power_state.pwrStateResidencyTicks::UNDEFINED 100368037000                       # Cumulative time (in ticks) in various power states (Tick)
system.membus.reqLayer2.occupancy           659679000                       # Layer occupancy (ticks) (Tick)
system.membus.reqLayer2.utilization               0.0                       # Layer utilization (Ratio)
system.membus.respLayer0.occupancy         1754932750                       # Layer occupancy (ticks) (Tick)
system.membus.respLayer0.utilization              0.0                       # Layer utilization (Ratio)
system.membus.snoop_filter.totRequests         658387                       # Total number of requests made to the snoop filter. (Count)
system.membus.snoop_filter.hitSingleRequests       327762                       # Number of requests hitting in the snoop filter with a single holder of the requested data. (Count)
system.membus.snoop_filter.hitMultiRequests            0                       # Number of requests hitting in the snoop filter with multiple (>1) holders of the requested data. (Count)
system.membus.snoop_filter.totSnoops                0                       # Total number of snoops made to the snoop filter. (Count)
system.membus.snoop_filter.hitSingleSnoops            0                       # Number of snoops hitting in the snoop filter with a single holder of the requested data. (Count)
system.membus.snoop_filter.hitMultiSnoops            0                       # Number of snoops hitting in the snoop filter with multiple (>1) holders of the requested data. (Count)
system.workload.inst.arm                            0                       # number of arm instructions executed (Count)
system.workload.inst.quiesce                        0                       # number of quiesce instructions executed (Count)

---------- End Simulation Statistics   ----------
