
---------- Begin Simulation Statistics ----------
simSeconds                                   0.008017                       # Number of seconds simulated (Second)
simTicks                                   8016974000                       # Number of ticks simulated (Tick)
finalTick                                  8016974000                       # Number of ticks from beginning of simulation (restored from checkpoints and never reset) (Tick)
simFreq                                  1000000000000                       # The number of ticks per simulated second ((Tick/Second))
hostSeconds                                     13.22                       # Real time elapsed on the host (Second)
hostTickRate                                606199691                       # The number of ticks simulated per host second (ticks/s) ((Tick/Second))
hostMemory                                     724336                       # Number of bytes of host memory used (Byte)
simInsts                                      4033838                       # Number of instructions simulated (Count)
simOps                                        7446144                       # Number of ops (including micro ops) simulated (Count)
hostInstRate                                   304999                       # Simulator instruction rate (inst/s) ((Count/Second))
hostOpRate                                     563004                       # Simulator op (including micro ops) rate (op/s) ((Count/Second))
system.clk_domain.clock                          1000                       # Clock period in ticks (Tick)
system.clk_domain.voltage_domain.voltage            1                       # Voltage in Volts (Volt)
system.cpu.numCycles                          8016975                       # Number of cpu cycles simulated (Cycle)
system.cpu.cpi                               1.987431                       # CPI: cycles per instruction (core level) ((Cycle/Count))
system.cpu.ipc                               0.503162                       # IPC: instructions per cycle (core level) ((Count/Cycle))
system.cpu.numWorkItemsStarted                      0                       # Number of work items this cpu started (Count)
system.cpu.numWorkItemsCompleted                    0                       # Number of work items this cpu completed (Count)
system.cpu.instsAdded                         9814597                       # Number of instructions added to the IQ (excludes non-spec) (Count)
system.cpu.nonSpecInstsAdded                   146499                       # Number of non-speculative instructions added to the IQ (Count)
system.cpu.instsIssued                        8501507                       # Number of instructions issued (Count)
system.cpu.squashedInstsIssued                  16119                       # Number of squashed instructions issued (Count)
system.cpu.squashedInstsExamined              2514938                       # Number of squashed instructions iterated over during squash; mainly for profiling (Count)
system.cpu.squashedOperandsExamined           6708386                       # Number of squashed operands that are examined and possibly removed from graph (Count)
system.cpu.squashedNonSpecRemoved               82659                       # Number of squashed non-spec instructions that were removed (Count)
system.cpu.numIssuedDist::samples             7990643                       # Number of insts issued each cycle (Count)
system.cpu.numIssuedDist::mean               1.063933                       # Number of insts issued each cycle (Count)
system.cpu.numIssuedDist::stdev              1.609496                       # Number of insts issued each cycle (Count)
system.cpu.numIssuedDist::underflows                0      0.00%      0.00% # Number of insts issued each cycle (Count)
system.cpu.numIssuedDist::0                   4814616     60.25%     60.25% # Number of insts issued each cycle (Count)
system.cpu.numIssuedDist::1                    744092      9.31%     69.57% # Number of insts issued each cycle (Count)
system.cpu.numIssuedDist::2                    879581     11.01%     80.57% # Number of insts issued each cycle (Count)
system.cpu.numIssuedDist::3                    857107     10.73%     91.30% # Number of insts issued each cycle (Count)
system.cpu.numIssuedDist::4                    314389      3.93%     95.23% # Number of insts issued each cycle (Count)
system.cpu.numIssuedDist::5                    227826      2.85%     98.08% # Number of insts issued each cycle (Count)
system.cpu.numIssuedDist::6                     79228      0.99%     99.08% # Number of insts issued each cycle (Count)
system.cpu.numIssuedDist::7                     35554      0.44%     99.52% # Number of insts issued each cycle (Count)
system.cpu.numIssuedDist::8                     38250      0.48%    100.00% # Number of insts issued each cycle (Count)
system.cpu.numIssuedDist::overflows                 0      0.00%    100.00% # Number of insts issued each cycle (Count)
system.cpu.numIssuedDist::min_value                 0                       # Number of insts issued each cycle (Count)
system.cpu.numIssuedDist::max_value                 8                       # Number of insts issued each cycle (Count)
system.cpu.numIssuedDist::total               7990643                       # Number of insts issued each cycle (Count)
system.cpu.statFuBusy::No_OpClass                   0      0.00%      0.00% # attempts to use FU when none available (Count)
system.cpu.statFuBusy::IntAlu                    8772     23.77%     23.77% # attempts to use FU when none available (Count)
system.cpu.statFuBusy::IntMult                      0      0.00%     23.77% # attempts to use FU when none available (Count)
system.cpu.statFuBusy::IntDiv                       0      0.00%     23.77% # attempts to use FU when none available (Count)
system.cpu.statFuBusy::FloatAdd                     0      0.00%     23.77% # attempts to use FU when none available (Count)
system.cpu.statFuBusy::FloatCmp                     0      0.00%     23.77% # attempts to use FU when none available (Count)
system.cpu.statFuBusy::FloatCvt                     0      0.00%     23.77% # attempts to use FU when none available (Count)
system.cpu.statFuBusy::FloatMult                    0      0.00%     23.77% # attempts to use FU when none available (Count)
system.cpu.statFuBusy::FloatMultAcc                 0      0.00%     23.77% # attempts to use FU when none available (Count)
system.cpu.statFuBusy::FloatDiv                     0      0.00%     23.77% # attempts to use FU when none available (Count)
system.cpu.statFuBusy::FloatMisc                    0      0.00%     23.77% # attempts to use FU when none available (Count)
system.cpu.statFuBusy::FloatSqrt                    0      0.00%     23.77% # attempts to use FU when none available (Count)
system.cpu.statFuBusy::SimdAdd                      0      0.00%     23.77% # attempts to use FU when none available (Count)
system.cpu.statFuBusy::SimdAddAcc                   0      0.00%     23.77% # attempts to use FU when none available (Count)
system.cpu.statFuBusy::SimdAlu                     12      0.03%     23.80% # attempts to use FU when none available (Count)
system.cpu.statFuBusy::SimdCmp                      0      0.00%     23.80% # attempts to use FU when none available (Count)
system.cpu.statFuBusy::SimdCvt                     13      0.04%     23.84% # attempts to use FU when none available (Count)
system.cpu.statFuBusy::SimdMisc                     5      0.01%     23.85% # attempts to use FU when none available (Count)
system.cpu.statFuBusy::SimdMult                     0      0.00%     23.85% # attempts to use FU when none available (Count)
system.cpu.statFuBusy::SimdMultAcc                  0      0.00%     23.85% # attempts to use FU when none available (Count)
system.cpu.statFuBusy::SimdMatMultAcc               0      0.00%     23.85% # attempts to use FU when none available (Count)
system.cpu.statFuBusy::SimdShift                    0      0.00%     23.85% # attempts to use FU when none available (Count)
system.cpu.statFuBusy::SimdShiftAcc                 0      0.00%     23.85% # attempts to use FU when none available (Count)
system.cpu.statFuBusy::SimdDiv                      0      0.00%     23.85% # attempts to use FU when none available (Count)
system.cpu.statFuBusy::SimdSqrt                     0      0.00%     23.85% # attempts to use FU when none available (Count)
system.cpu.statFuBusy::SimdFloatAdd                 0      0.00%     23.85% # attempts to use FU when none available (Count)
system.cpu.statFuBusy::SimdFloatAlu                 0      0.00%     23.85% # attempts to use FU when none available (Count)
system.cpu.statFuBusy::SimdFloatCmp                 0      0.00%     23.85% # attempts to use FU when none available (Count)
system.cpu.statFuBusy::SimdFloatCvt                 0      0.00%     23.85% # attempts to use FU when none available (Count)
system.cpu.statFuBusy::SimdFloatDiv                 0      0.00%     23.85% # attempts to use FU when none available (Count)
system.cpu.statFuBusy::SimdFloatMisc                0      0.00%     23.85% # attempts to use FU when none available (Count)
system.cpu.statFuBusy::SimdFloatMult                0      0.00%     23.85% # attempts to use FU when none available (Count)
system.cpu.statFuBusy::SimdFloatMultAcc             0      0.00%     23.85% # attempts to use FU when none available (Count)
system.cpu.statFuBusy::SimdFloatMatMultAcc            0      0.00%     23.85% # attempts to use FU when none available (Count)
system.cpu.statFuBusy::SimdFloatSqrt                0      0.00%     23.85% # attempts to use FU when none available (Count)
system.cpu.statFuBusy::SimdReduceAdd                0      0.00%     23.85% # attempts to use FU when none available (Count)
system.cpu.statFuBusy::SimdReduceAlu                0      0.00%     23.85% # attempts to use FU when none available (Count)
system.cpu.statFuBusy::SimdReduceCmp                0      0.00%     23.85% # attempts to use FU when none available (Count)
system.cpu.statFuBusy::SimdFloatReduceAdd            0      0.00%     23.85% # attempts to use FU when none available (Count)
system.cpu.statFuBusy::SimdFloatReduceCmp            0      0.00%     23.85% # attempts to use FU when none available (Count)
system.cpu.statFuBusy::SimdAes                      0      0.00%     23.85% # attempts to use FU when none available (Count)
system.cpu.statFuBusy::SimdAesMix                   0      0.00%     23.85% # attempts to use FU when none available (Count)
system.cpu.statFuBusy::SimdSha1Hash                 0      0.00%     23.85% # attempts to use FU when none available (Count)
system.cpu.statFuBusy::SimdSha1Hash2                0      0.00%     23.85% # attempts to use FU when none available (Count)
system.cpu.statFuBusy::SimdSha256Hash               0      0.00%     23.85% # attempts to use FU when none available (Count)
system.cpu.statFuBusy::SimdSha256Hash2              0      0.00%     23.85% # attempts to use FU when none available (Count)
system.cpu.statFuBusy::SimdShaSigma2                0      0.00%     23.85% # attempts to use FU when none available (Count)
system.cpu.statFuBusy::SimdShaSigma3                0      0.00%     23.85% # attempts to use FU when none available (Count)
system.cpu.statFuBusy::SimdPredAlu                  0      0.00%     23.85% # attempts to use FU when none available (Count)
system.cpu.statFuBusy::Matrix                       0      0.00%     23.85% # attempts to use FU when none available (Count)
system.cpu.statFuBusy::MatrixMov                    0      0.00%     23.85% # attempts to use FU when none available (Count)
system.cpu.statFuBusy::MatrixOP                     0      0.00%     23.85% # attempts to use FU when none available (Count)
system.cpu.statFuBusy::MemRead                  27632     74.88%     98.73% # attempts to use FU when none available (Count)
system.cpu.statFuBusy::MemWrite                   451      1.22%     99.95% # attempts to use FU when none available (Count)
system.cpu.statFuBusy::FloatMemRead                 8      0.02%     99.97% # attempts to use FU when none available (Count)
system.cpu.statFuBusy::FloatMemWrite               10      0.03%    100.00% # attempts to use FU when none available (Count)
system.cpu.statFuBusy::IprAccess                    0      0.00%    100.00% # attempts to use FU when none available (Count)
system.cpu.statFuBusy::InstPrefetch                 0      0.00%    100.00% # attempts to use FU when none available (Count)
system.cpu.statFuBusy::VectorUnitStrideLoad            0      0.00%    100.00% # attempts to use FU when none available (Count)
system.cpu.statFuBusy::VectorUnitStrideStore            0      0.00%    100.00% # attempts to use FU when none available (Count)
system.cpu.statFuBusy::VectorUnitStrideMaskLoad            0      0.00%    100.00% # attempts to use FU when none available (Count)
system.cpu.statFuBusy::VectorUnitStrideMaskStore            0      0.00%    100.00% # attempts to use FU when none available (Count)
system.cpu.statFuBusy::VectorStridedLoad            0      0.00%    100.00% # attempts to use FU when none available (Count)
system.cpu.statFuBusy::VectorStridedStore            0      0.00%    100.00% # attempts to use FU when none available (Count)
system.cpu.statFuBusy::VectorIndexedLoad            0      0.00%    100.00% # attempts to use FU when none available (Count)
system.cpu.statFuBusy::VectorIndexedStore            0      0.00%    100.00% # attempts to use FU when none available (Count)
system.cpu.statFuBusy::VectorUnitStrideFaultOnlyFirstLoad            0      0.00%    100.00% # attempts to use FU when none available (Count)
system.cpu.statFuBusy::VectorWholeRegisterLoad            0      0.00%    100.00% # attempts to use FU when none available (Count)
system.cpu.statFuBusy::VectorWholeRegisterStore            0      0.00%    100.00% # attempts to use FU when none available (Count)
system.cpu.statFuBusy::VectorIntegerArith            0      0.00%    100.00% # attempts to use FU when none available (Count)
system.cpu.statFuBusy::VectorFloatArith             0      0.00%    100.00% # attempts to use FU when none available (Count)
system.cpu.statFuBusy::VectorFloatConvert            0      0.00%    100.00% # attempts to use FU when none available (Count)
system.cpu.statFuBusy::VectorIntegerReduce            0      0.00%    100.00% # attempts to use FU when none available (Count)
system.cpu.statFuBusy::VectorFloatReduce            0      0.00%    100.00% # attempts to use FU when none available (Count)
system.cpu.statFuBusy::VectorMisc                   0      0.00%    100.00% # attempts to use FU when none available (Count)
system.cpu.statFuBusy::VectorIntegerExtension            0      0.00%    100.00% # attempts to use FU when none available (Count)
system.cpu.statFuBusy::VectorConfig                 0      0.00%    100.00% # attempts to use FU when none available (Count)
system.cpu.statIssuedInstType_0::No_OpClass          885      0.01%      0.01% # Number of instructions issued per FU type, per thread (Count)
system.cpu.statIssuedInstType_0::IntAlu       5955080     70.05%     70.06% # Number of instructions issued per FU type, per thread (Count)
system.cpu.statIssuedInstType_0::IntMult        23555      0.28%     70.33% # Number of instructions issued per FU type, per thread (Count)
system.cpu.statIssuedInstType_0::IntDiv          1763      0.02%     70.36% # Number of instructions issued per FU type, per thread (Count)
system.cpu.statIssuedInstType_0::FloatAdd          336      0.00%     70.36% # Number of instructions issued per FU type, per thread (Count)
system.cpu.statIssuedInstType_0::FloatCmp            0      0.00%     70.36% # Number of instructions issued per FU type, per thread (Count)
system.cpu.statIssuedInstType_0::FloatCvt            0      0.00%     70.36% # Number of instructions issued per FU type, per thread (Count)
system.cpu.statIssuedInstType_0::FloatMult            0      0.00%     70.36% # Number of instructions issued per FU type, per thread (Count)
system.cpu.statIssuedInstType_0::FloatMultAcc            0      0.00%     70.36% # Number of instructions issued per FU type, per thread (Count)
system.cpu.statIssuedInstType_0::FloatDiv            0      0.00%     70.36% # Number of instructions issued per FU type, per thread (Count)
system.cpu.statIssuedInstType_0::FloatMisc            0      0.00%     70.36% # Number of instructions issued per FU type, per thread (Count)
system.cpu.statIssuedInstType_0::FloatSqrt            0      0.00%     70.36% # Number of instructions issued per FU type, per thread (Count)
system.cpu.statIssuedInstType_0::SimdAdd            0      0.00%     70.36% # Number of instructions issued per FU type, per thread (Count)
system.cpu.statIssuedInstType_0::SimdAddAcc            0      0.00%     70.36% # Number of instructions issued per FU type, per thread (Count)
system.cpu.statIssuedInstType_0::SimdAlu         1702      0.02%     70.38% # Number of instructions issued per FU type, per thread (Count)
system.cpu.statIssuedInstType_0::SimdCmp            6      0.00%     70.38% # Number of instructions issued per FU type, per thread (Count)
system.cpu.statIssuedInstType_0::SimdCvt         1964      0.02%     70.40% # Number of instructions issued per FU type, per thread (Count)
system.cpu.statIssuedInstType_0::SimdMisc         3360      0.04%     70.44% # Number of instructions issued per FU type, per thread (Count)
system.cpu.statIssuedInstType_0::SimdMult            0      0.00%     70.44% # Number of instructions issued per FU type, per thread (Count)
system.cpu.statIssuedInstType_0::SimdMultAcc            0      0.00%     70.44% # Number of instructions issued per FU type, per thread (Count)
system.cpu.statIssuedInstType_0::SimdMatMultAcc            0      0.00%     70.44% # Number of instructions issued per FU type, per thread (Count)
system.cpu.statIssuedInstType_0::SimdShift            0      0.00%     70.44% # Number of instructions issued per FU type, per thread (Count)
system.cpu.statIssuedInstType_0::SimdShiftAcc            0      0.00%     70.44% # Number of instructions issued per FU type, per thread (Count)
system.cpu.statIssuedInstType_0::SimdDiv            0      0.00%     70.44% # Number of instructions issued per FU type, per thread (Count)
system.cpu.statIssuedInstType_0::SimdSqrt            0      0.00%     70.44% # Number of instructions issued per FU type, per thread (Count)
system.cpu.statIssuedInstType_0::SimdFloatAdd            0      0.00%     70.44% # Number of instructions issued per FU type, per thread (Count)
system.cpu.statIssuedInstType_0::SimdFloatAlu            0      0.00%     70.44% # Number of instructions issued per FU type, per thread (Count)
system.cpu.statIssuedInstType_0::SimdFloatCmp            0      0.00%     70.44% # Number of instructions issued per FU type, per thread (Count)
system.cpu.statIssuedInstType_0::SimdFloatCvt            0      0.00%     70.44% # Number of instructions issued per FU type, per thread (Count)
system.cpu.statIssuedInstType_0::SimdFloatDiv            0      0.00%     70.44% # Number of instructions issued per FU type, per thread (Count)
system.cpu.statIssuedInstType_0::SimdFloatMisc            0      0.00%     70.44% # Number of instructions issued per FU type, per thread (Count)
system.cpu.statIssuedInstType_0::SimdFloatMult            0      0.00%     70.44% # Number of instructions issued per FU type, per thread (Count)
system.cpu.statIssuedInstType_0::SimdFloatMultAcc            0      0.00%     70.44% # Number of instructions issued per FU type, per thread (Count)
system.cpu.statIssuedInstType_0::SimdFloatMatMultAcc            0      0.00%     70.44% # Number of instructions issued per FU type, per thread (Count)
system.cpu.statIssuedInstType_0::SimdFloatSqrt            0      0.00%     70.44% # Number of instructions issued per FU type, per thread (Count)
system.cpu.statIssuedInstType_0::SimdReduceAdd            0      0.00%     70.44% # Number of instructions issued per FU type, per thread (Count)
system.cpu.statIssuedInstType_0::SimdReduceAlu            0      0.00%     70.44% # Number of instructions issued per FU type, per thread (Count)
system.cpu.statIssuedInstType_0::SimdReduceCmp            0      0.00%     70.44% # Number of instructions issued per FU type, per thread (Count)
system.cpu.statIssuedInstType_0::SimdFloatReduceAdd            0      0.00%     70.44% # Number of instructions issued per FU type, per thread (Count)
system.cpu.statIssuedInstType_0::SimdFloatReduceCmp            0      0.00%     70.44% # Number of instructions issued per FU type, per thread (Count)
system.cpu.statIssuedInstType_0::SimdAes            0      0.00%     70.44% # Number of instructions issued per FU type, per thread (Count)
system.cpu.statIssuedInstType_0::SimdAesMix            0      0.00%     70.44% # Number of instructions issued per FU type, per thread (Count)
system.cpu.statIssuedInstType_0::SimdSha1Hash            0      0.00%     70.44% # Number of instructions issued per FU type, per thread (Count)
system.cpu.statIssuedInstType_0::SimdSha1Hash2            0      0.00%     70.44% # Number of instructions issued per FU type, per thread (Count)
system.cpu.statIssuedInstType_0::SimdSha256Hash            0      0.00%     70.44% # Number of instructions issued per FU type, per thread (Count)
system.cpu.statIssuedInstType_0::SimdSha256Hash2            0      0.00%     70.44% # Number of instructions issued per FU type, per thread (Count)
system.cpu.statIssuedInstType_0::SimdShaSigma2            0      0.00%     70.44% # Number of instructions issued per FU type, per thread (Count)
system.cpu.statIssuedInstType_0::SimdShaSigma3            0      0.00%     70.44% # Number of instructions issued per FU type, per thread (Count)
system.cpu.statIssuedInstType_0::SimdPredAlu            0      0.00%     70.44% # Number of instructions issued per FU type, per thread (Count)
system.cpu.statIssuedInstType_0::Matrix             0      0.00%     70.44% # Number of instructions issued per FU type, per thread (Count)
system.cpu.statIssuedInstType_0::MatrixMov            0      0.00%     70.44% # Number of instructions issued per FU type, per thread (Count)
system.cpu.statIssuedInstType_0::MatrixOP            0      0.00%     70.44% # Number of instructions issued per FU type, per thread (Count)
system.cpu.statIssuedInstType_0::MemRead      1631967     19.20%     89.64% # Number of instructions issued per FU type, per thread (Count)
system.cpu.statIssuedInstType_0::MemWrite       879663     10.35%     99.99% # Number of instructions issued per FU type, per thread (Count)
system.cpu.statIssuedInstType_0::FloatMemRead         1042      0.01%    100.00% # Number of instructions issued per FU type, per thread (Count)
system.cpu.statIssuedInstType_0::FloatMemWrite          184      0.00%    100.00% # Number of instructions issued per FU type, per thread (Count)
system.cpu.statIssuedInstType_0::IprAccess            0      0.00%    100.00% # Number of instructions issued per FU type, per thread (Count)
system.cpu.statIssuedInstType_0::InstPrefetch            0      0.00%    100.00% # Number of instructions issued per FU type, per thread (Count)
system.cpu.statIssuedInstType_0::VectorUnitStrideLoad            0      0.00%    100.00% # Number of instructions issued per FU type, per thread (Count)
system.cpu.statIssuedInstType_0::VectorUnitStrideStore            0      0.00%    100.00% # Number of instructions issued per FU type, per thread (Count)
system.cpu.statIssuedInstType_0::VectorUnitStrideMaskLoad            0      0.00%    100.00% # Number of instructions issued per FU type, per thread (Count)
system.cpu.statIssuedInstType_0::VectorUnitStrideMaskStore            0      0.00%    100.00% # Number of instructions issued per FU type, per thread (Count)
system.cpu.statIssuedInstType_0::VectorStridedLoad            0      0.00%    100.00% # Number of instructions issued per FU type, per thread (Count)
system.cpu.statIssuedInstType_0::VectorStridedStore            0      0.00%    100.00% # Number of instructions issued per FU type, per thread (Count)
system.cpu.statIssuedInstType_0::VectorIndexedLoad            0      0.00%    100.00% # Number of instructions issued per FU type, per thread (Count)
system.cpu.statIssuedInstType_0::VectorIndexedStore            0      0.00%    100.00% # Number of instructions issued per FU type, per thread (Count)
system.cpu.statIssuedInstType_0::VectorUnitStrideFaultOnlyFirstLoad            0      0.00%    100.00% # Number of instructions issued per FU type, per thread (Count)
system.cpu.statIssuedInstType_0::VectorWholeRegisterLoad            0      0.00%    100.00% # Number of instructions issued per FU type, per thread (Count)
system.cpu.statIssuedInstType_0::VectorWholeRegisterStore            0      0.00%    100.00% # Number of instructions issued per FU type, per thread (Count)
system.cpu.statIssuedInstType_0::VectorIntegerArith            0      0.00%    100.00% # Number of instructions issued per FU type, per thread (Count)
system.cpu.statIssuedInstType_0::VectorFloatArith            0      0.00%    100.00% # Number of instructions issued per FU type, per thread (Count)
system.cpu.statIssuedInstType_0::VectorFloatConvert            0      0.00%    100.00% # Number of instructions issued per FU type, per thread (Count)
system.cpu.statIssuedInstType_0::VectorIntegerReduce            0      0.00%    100.00% # Number of instructions issued per FU type, per thread (Count)
system.cpu.statIssuedInstType_0::VectorFloatReduce            0      0.00%    100.00% # Number of instructions issued per FU type, per thread (Count)
system.cpu.statIssuedInstType_0::VectorMisc            0      0.00%    100.00% # Number of instructions issued per FU type, per thread (Count)
system.cpu.statIssuedInstType_0::VectorIntegerExtension            0      0.00%    100.00% # Number of instructions issued per FU type, per thread (Count)
system.cpu.statIssuedInstType_0::VectorConfig            0      0.00%    100.00% # Number of instructions issued per FU type, per thread (Count)
system.cpu.statIssuedInstType_0::total        8501507                       # Number of instructions issued per FU type, per thread (Count)
system.cpu.issueRate                         1.060438                       # Inst issue rate ((Count/Cycle))
system.cpu.fuBusy                               36903                       # FU busy when requested (Count)
system.cpu.fuBusyRate                        0.004341                       # FU busy rate (busy events/executed inst) ((Count/Count))
system.cpu.intInstQueueReads                 25027027                       # Number of integer instruction queue reads (Count)
system.cpu.intInstQueueWrites                12511436                       # Number of integer instruction queue writes (Count)
system.cpu.intInstQueueWakeupAccesses         8447106                       # Number of integer instruction queue wakeup accesses (Count)
system.cpu.fpInstQueueReads                     19646                       # Number of floating instruction queue reads (Count)
system.cpu.fpInstQueueWrites                    10108                       # Number of floating instruction queue writes (Count)
system.cpu.fpInstQueueWakeupAccesses             9760                       # Number of floating instruction queue wakeup accesses (Count)
system.cpu.vecInstQueueReads                        0                       # Number of vector instruction queue reads (Count)
system.cpu.vecInstQueueWrites                       0                       # Number of vector instruction queue writes (Count)
system.cpu.vecInstQueueWakeupAccesses               0                       # Number of vector instruction queue wakeup accesses (Count)
system.cpu.intAluAccesses                     8527681                       # Number of integer alu accesses (Count)
system.cpu.fpAluAccesses                         9844                       # Number of floating point alu accesses (Count)
system.cpu.vecAluAccesses                           0                       # Number of vector alu accesses (Count)
system.cpu.numSquashedInsts                     13332                       # Number of squashed instructions skipped in execute (Count)
system.cpu.numSwp                                   0                       # Number of swp insts executed (Count)
system.cpu.timesIdled                             703                       # Number of times that the entire CPU went into an idle state and unscheduled itself (Count)
system.cpu.idleCycles                           26332                       # Total number of cycles that the CPU has spent unscheduled due to idling (Cycle)
system.cpu.MemDepUnit__0.insertedLoads        1986862                       # Number of loads inserted to the mem dependence unit. (Count)
system.cpu.MemDepUnit__0.insertedStores       1185244                       # Number of stores inserted to the mem dependence unit. (Count)
system.cpu.MemDepUnit__0.conflictingLoads      1682282                       # Number of conflicting loads. (Count)
system.cpu.MemDepUnit__0.conflictingStores       665321                       # Number of conflicting stores. (Count)
system.cpu.MemDepUnit__1.insertedLoads              0                       # Number of loads inserted to the mem dependence unit. (Count)
system.cpu.MemDepUnit__1.insertedStores             0                       # Number of stores inserted to the mem dependence unit. (Count)
system.cpu.MemDepUnit__1.conflictingLoads            0                       # Number of conflicting loads. (Count)
system.cpu.MemDepUnit__1.conflictingStores            0                       # Number of conflicting stores. (Count)
system.cpu.MemDepUnit__2.insertedLoads              0                       # Number of loads inserted to the mem dependence unit. (Count)
system.cpu.MemDepUnit__2.insertedStores             0                       # Number of stores inserted to the mem dependence unit. (Count)
system.cpu.MemDepUnit__2.conflictingLoads            0                       # Number of conflicting loads. (Count)
system.cpu.MemDepUnit__2.conflictingStores            0                       # Number of conflicting stores. (Count)
system.cpu.MemDepUnit__3.insertedLoads              0                       # Number of loads inserted to the mem dependence unit. (Count)
system.cpu.MemDepUnit__3.insertedStores             0                       # Number of stores inserted to the mem dependence unit. (Count)
system.cpu.MemDepUnit__3.conflictingLoads            0                       # Number of conflicting loads. (Count)
system.cpu.MemDepUnit__3.conflictingStores            0                       # Number of conflicting stores. (Count)
system.cpu.branchPred.lookups                  840192                       # Number of BP lookups (Count)
system.cpu.branchPred.condPredicted            815200                       # Number of conditional branches predicted (Count)
system.cpu.branchPred.condIncorrect              2685                       # Number of conditional branches incorrect (Count)
system.cpu.branchPred.BTBLookups               756636                       # Number of BTB lookups (Count)
system.cpu.branchPred.BTBUpdates                 1603                       # Number of BTB updates (Count)
system.cpu.branchPred.BTBHits                  756197                       # Number of BTB hits (Count)
system.cpu.branchPred.BTBHitRatio            0.999420                       # BTB Hit Ratio (Ratio)
system.cpu.branchPred.RASUsed                    5491                       # Number of times the RAS was used to get a target. (Count)
system.cpu.branchPred.RASIncorrect                  3                       # Number of incorrect RAS predictions. (Count)
system.cpu.branchPred.indirectLookups            1296                       # Number of indirect predictor lookups. (Count)
system.cpu.branchPred.indirectHits               1019                       # Number of indirect target hits. (Count)
system.cpu.branchPred.indirectMisses              277                       # Number of indirect misses. (Count)
system.cpu.branchPred.indirectMispredicted          179                       # Number of mispredicted indirect branches. (Count)
system.cpu.branchPred.tage.longestMatchProviderCorrect       352695                       # Number of times TAGE Longest Match is the provider and the prediction is correct (Count)
system.cpu.branchPred.tage.altMatchProviderCorrect          168                       # Number of times TAGE Alt Match is the provider and the prediction is correct (Count)
system.cpu.branchPred.tage.bimodalAltMatchProviderCorrect          137                       # Number of times TAGE Alt Match is the bimodal and it is the provider and the prediction is correct (Count)
system.cpu.branchPred.tage.bimodalProviderCorrect       209039                       # Number of times there are no hits on the TAGE tables and the bimodal prediction is correct (Count)
system.cpu.branchPred.tage.longestMatchProviderWrong         1263                       # Number of times TAGE Longest Match is the provider and the prediction is wrong (Count)
system.cpu.branchPred.tage.altMatchProviderWrong           69                       # Number of times TAGE Alt Match is the provider and the prediction is wrong (Count)
system.cpu.branchPred.tage.bimodalAltMatchProviderWrong           49                       # Number of times TAGE Alt Match is the bimodal and it is the provider and the prediction is wrong (Count)
system.cpu.branchPred.tage.bimodalProviderWrong          471                       # Number of times there are no hits on the TAGE tables and the bimodal prediction is wrong (Count)
system.cpu.branchPred.tage.altMatchProviderWouldHaveHit          128                       # Number of times TAGE Longest Match is the provider, the prediction is wrong and Alt Match prediction was correct (Count)
system.cpu.branchPred.tage.longestMatchProviderWouldHaveHit           82                       # Number of times TAGE Alt Match is the provider, the prediction is wrong and Longest Match prediction was correct (Count)
system.cpu.branchPred.tage.longestMatchProvider::0            0                       # TAGE provider for longest match (Count)
system.cpu.branchPred.tage.longestMatchProvider::1        34096                       # TAGE provider for longest match (Count)
system.cpu.branchPred.tage.longestMatchProvider::2         4565                       # TAGE provider for longest match (Count)
system.cpu.branchPred.tage.longestMatchProvider::3         6367                       # TAGE provider for longest match (Count)
system.cpu.branchPred.tage.longestMatchProvider::4        51202                       # TAGE provider for longest match (Count)
system.cpu.branchPred.tage.longestMatchProvider::5        79715                       # TAGE provider for longest match (Count)
system.cpu.branchPred.tage.longestMatchProvider::6       106767                       # TAGE provider for longest match (Count)
system.cpu.branchPred.tage.longestMatchProvider::7        71483                       # TAGE provider for longest match (Count)
system.cpu.branchPred.tage.altMatchProvider::0        39340                       # TAGE provider for alt match (Count)
system.cpu.branchPred.tage.altMatchProvider::1        52026                       # TAGE provider for alt match (Count)
system.cpu.branchPred.tage.altMatchProvider::2         5507                       # TAGE provider for alt match (Count)
system.cpu.branchPred.tage.altMatchProvider::3         5321                       # TAGE provider for alt match (Count)
system.cpu.branchPred.tage.altMatchProvider::4        83333                       # TAGE provider for alt match (Count)
system.cpu.branchPred.tage.altMatchProvider::5       111728                       # TAGE provider for alt match (Count)
system.cpu.branchPred.tage.altMatchProvider::6        56940                       # TAGE provider for alt match (Count)
system.cpu.branchPred.tage.altMatchProvider::7            0                       # TAGE provider for alt match (Count)
system.cpu.commit.commitSquashedInsts         2512510                       # The number of squashed insts skipped by commit (Count)
system.cpu.commit.commitNonSpecStalls           63840                       # The number of times commit has been forced to stall to communicate backwards (Count)
system.cpu.commit.branchMispredicts              2224                       # The number of times a branch was mispredicted (Count)
system.cpu.commit.numCommittedDist::samples      7658960                       # Number of insts commited each cycle (Count)
system.cpu.commit.numCommittedDist::mean     0.972213                       # Number of insts commited each cycle (Count)
system.cpu.commit.numCommittedDist::stdev     1.873727                       # Number of insts commited each cycle (Count)
system.cpu.commit.numCommittedDist::underflows            0      0.00%      0.00% # Number of insts commited each cycle (Count)
system.cpu.commit.numCommittedDist::0         5130405     66.99%     66.99% # Number of insts commited each cycle (Count)
system.cpu.commit.numCommittedDist::1          823266     10.75%     77.73% # Number of insts commited each cycle (Count)
system.cpu.commit.numCommittedDist::2          568965      7.43%     85.16% # Number of insts commited each cycle (Count)
system.cpu.commit.numCommittedDist::3          525487      6.86%     92.02% # Number of insts commited each cycle (Count)
system.cpu.commit.numCommittedDist::4           14852      0.19%     92.22% # Number of insts commited each cycle (Count)
system.cpu.commit.numCommittedDist::5          268440      3.50%     95.72% # Number of insts commited each cycle (Count)
system.cpu.commit.numCommittedDist::6           45461      0.59%     96.32% # Number of insts commited each cycle (Count)
system.cpu.commit.numCommittedDist::7           22559      0.29%     96.61% # Number of insts commited each cycle (Count)
system.cpu.commit.numCommittedDist::8          259525      3.39%    100.00% # Number of insts commited each cycle (Count)
system.cpu.commit.numCommittedDist::overflows            0      0.00%    100.00% # Number of insts commited each cycle (Count)
system.cpu.commit.numCommittedDist::min_value            0                       # Number of insts commited each cycle (Count)
system.cpu.commit.numCommittedDist::max_value            8                       # Number of insts commited each cycle (Count)
system.cpu.commit.numCommittedDist::total      7658960                       # Number of insts commited each cycle (Count)
system.cpu.commit.amos                              0                       # Number of atomic instructions committed (Count)
system.cpu.commit.membars                       63840                       # Number of memory barriers committed (Count)
system.cpu.commit.functionCalls                  4590                       # Number of function calls committed. (Count)
system.cpu.commit.committedInstType_0::No_OpClass          651      0.01%      0.01% # Class of committed instruction (Count)
system.cpu.commit.committedInstType_0::IntAlu      5079601     68.22%     68.23% # Class of committed instruction (Count)
system.cpu.commit.committedInstType_0::IntMult        22929      0.31%     68.53% # Class of committed instruction (Count)
system.cpu.commit.committedInstType_0::IntDiv         1722      0.02%     68.56% # Class of committed instruction (Count)
system.cpu.commit.committedInstType_0::FloatAdd          336      0.00%     68.56% # Class of committed instruction (Count)
system.cpu.commit.committedInstType_0::FloatCmp            0      0.00%     68.56% # Class of committed instruction (Count)
system.cpu.commit.committedInstType_0::FloatCvt            0      0.00%     68.56% # Class of committed instruction (Count)
system.cpu.commit.committedInstType_0::FloatMult            0      0.00%     68.56% # Class of committed instruction (Count)
system.cpu.commit.committedInstType_0::FloatMultAcc            0      0.00%     68.56% # Class of committed instruction (Count)
system.cpu.commit.committedInstType_0::FloatDiv            0      0.00%     68.56% # Class of committed instruction (Count)
system.cpu.commit.committedInstType_0::FloatMisc            0      0.00%     68.56% # Class of committed instruction (Count)
system.cpu.commit.committedInstType_0::FloatSqrt            0      0.00%     68.56% # Class of committed instruction (Count)
system.cpu.commit.committedInstType_0::SimdAdd            0      0.00%     68.56% # Class of committed instruction (Count)
system.cpu.commit.committedInstType_0::SimdAddAcc            0      0.00%     68.56% # Class of committed instruction (Count)
system.cpu.commit.committedInstType_0::SimdAlu         1686      0.02%     68.58% # Class of committed instruction (Count)
system.cpu.commit.committedInstType_0::SimdCmp            6      0.00%     68.58% # Class of committed instruction (Count)
system.cpu.commit.committedInstType_0::SimdCvt         1936      0.03%     68.61% # Class of committed instruction (Count)
system.cpu.commit.committedInstType_0::SimdMisc         3356      0.05%     68.66% # Class of committed instruction (Count)
system.cpu.commit.committedInstType_0::SimdMult            0      0.00%     68.66% # Class of committed instruction (Count)
system.cpu.commit.committedInstType_0::SimdMultAcc            0      0.00%     68.66% # Class of committed instruction (Count)
system.cpu.commit.committedInstType_0::SimdMatMultAcc            0      0.00%     68.66% # Class of committed instruction (Count)
system.cpu.commit.committedInstType_0::SimdShift            0      0.00%     68.66% # Class of committed instruction (Count)
system.cpu.commit.committedInstType_0::SimdShiftAcc            0      0.00%     68.66% # Class of committed instruction (Count)
system.cpu.commit.committedInstType_0::SimdDiv            0      0.00%     68.66% # Class of committed instruction (Count)
system.cpu.commit.committedInstType_0::SimdSqrt            0      0.00%     68.66% # Class of committed instruction (Count)
system.cpu.commit.committedInstType_0::SimdFloatAdd            0      0.00%     68.66% # Class of committed instruction (Count)
system.cpu.commit.committedInstType_0::SimdFloatAlu            0      0.00%     68.66% # Class of committed instruction (Count)
system.cpu.commit.committedInstType_0::SimdFloatCmp            0      0.00%     68.66% # Class of committed instruction (Count)
system.cpu.commit.committedInstType_0::SimdFloatCvt            0      0.00%     68.66% # Class of committed instruction (Count)
system.cpu.commit.committedInstType_0::SimdFloatDiv            0      0.00%     68.66% # Class of committed instruction (Count)
system.cpu.commit.committedInstType_0::SimdFloatMisc            0      0.00%     68.66% # Class of committed instruction (Count)
system.cpu.commit.committedInstType_0::SimdFloatMult            0      0.00%     68.66% # Class of committed instruction (Count)
system.cpu.commit.committedInstType_0::SimdFloatMultAcc            0      0.00%     68.66% # Class of committed instruction (Count)
system.cpu.commit.committedInstType_0::SimdFloatMatMultAcc            0      0.00%     68.66% # Class of committed instruction (Count)
system.cpu.commit.committedInstType_0::SimdFloatSqrt            0      0.00%     68.66% # Class of committed instruction (Count)
system.cpu.commit.committedInstType_0::SimdReduceAdd            0      0.00%     68.66% # Class of committed instruction (Count)
system.cpu.commit.committedInstType_0::SimdReduceAlu            0      0.00%     68.66% # Class of committed instruction (Count)
system.cpu.commit.committedInstType_0::SimdReduceCmp            0      0.00%     68.66% # Class of committed instruction (Count)
system.cpu.commit.committedInstType_0::SimdFloatReduceAdd            0      0.00%     68.66% # Class of committed instruction (Count)
system.cpu.commit.committedInstType_0::SimdFloatReduceCmp            0      0.00%     68.66% # Class of committed instruction (Count)
system.cpu.commit.committedInstType_0::SimdAes            0      0.00%     68.66% # Class of committed instruction (Count)
system.cpu.commit.committedInstType_0::SimdAesMix            0      0.00%     68.66% # Class of committed instruction (Count)
system.cpu.commit.committedInstType_0::SimdSha1Hash            0      0.00%     68.66% # Class of committed instruction (Count)
system.cpu.commit.committedInstType_0::SimdSha1Hash2            0      0.00%     68.66% # Class of committed instruction (Count)
system.cpu.commit.committedInstType_0::SimdSha256Hash            0      0.00%     68.66% # Class of committed instruction (Count)
system.cpu.commit.committedInstType_0::SimdSha256Hash2            0      0.00%     68.66% # Class of committed instruction (Count)
system.cpu.commit.committedInstType_0::SimdShaSigma2            0      0.00%     68.66% # Class of committed instruction (Count)
system.cpu.commit.committedInstType_0::SimdShaSigma3            0      0.00%     68.66% # Class of committed instruction (Count)
system.cpu.commit.committedInstType_0::SimdPredAlu            0      0.00%     68.66% # Class of committed instruction (Count)
system.cpu.commit.committedInstType_0::Matrix            0      0.00%     68.66% # Class of committed instruction (Count)
system.cpu.commit.committedInstType_0::MatrixMov            0      0.00%     68.66% # Class of committed instruction (Count)
system.cpu.commit.committedInstType_0::MatrixOP            0      0.00%     68.66% # Class of committed instruction (Count)
system.cpu.commit.committedInstType_0::MemRead      1486985     19.97%     88.63% # Class of committed instruction (Count)
system.cpu.commit.committedInstType_0::MemWrite       845778     11.36%     99.98% # Class of committed instruction (Count)
system.cpu.commit.committedInstType_0::FloatMemRead          998      0.01%    100.00% # Class of committed instruction (Count)
system.cpu.commit.committedInstType_0::FloatMemWrite          160      0.00%    100.00% # Class of committed instruction (Count)
system.cpu.commit.committedInstType_0::IprAccess            0      0.00%    100.00% # Class of committed instruction (Count)
system.cpu.commit.committedInstType_0::InstPrefetch            0      0.00%    100.00% # Class of committed instruction (Count)
system.cpu.commit.committedInstType_0::VectorUnitStrideLoad            0      0.00%    100.00% # Class of committed instruction (Count)
system.cpu.commit.committedInstType_0::VectorUnitStrideStore            0      0.00%    100.00% # Class of committed instruction (Count)
system.cpu.commit.committedInstType_0::VectorUnitStrideMaskLoad            0      0.00%    100.00% # Class of committed instruction (Count)
system.cpu.commit.committedInstType_0::VectorUnitStrideMaskStore            0      0.00%    100.00% # Class of committed instruction (Count)
system.cpu.commit.committedInstType_0::VectorStridedLoad            0      0.00%    100.00% # Class of committed instruction (Count)
system.cpu.commit.committedInstType_0::VectorStridedStore            0      0.00%    100.00% # Class of committed instruction (Count)
system.cpu.commit.committedInstType_0::VectorIndexedLoad            0      0.00%    100.00% # Class of committed instruction (Count)
system.cpu.commit.committedInstType_0::VectorIndexedStore            0      0.00%    100.00% # Class of committed instruction (Count)
system.cpu.commit.committedInstType_0::VectorUnitStrideFaultOnlyFirstLoad            0      0.00%    100.00% # Class of committed instruction (Count)
system.cpu.commit.committedInstType_0::VectorWholeRegisterLoad            0      0.00%    100.00% # Class of committed instruction (Count)
system.cpu.commit.committedInstType_0::VectorWholeRegisterStore            0      0.00%    100.00% # Class of committed instruction (Count)
system.cpu.commit.committedInstType_0::VectorIntegerArith            0      0.00%    100.00% # Class of committed instruction (Count)
system.cpu.commit.committedInstType_0::VectorFloatArith            0      0.00%    100.00% # Class of committed instruction (Count)
system.cpu.commit.committedInstType_0::VectorFloatConvert            0      0.00%    100.00% # Class of committed instruction (Count)
system.cpu.commit.committedInstType_0::VectorIntegerReduce            0      0.00%    100.00% # Class of committed instruction (Count)
system.cpu.commit.committedInstType_0::VectorFloatReduce            0      0.00%    100.00% # Class of committed instruction (Count)
system.cpu.commit.committedInstType_0::VectorMisc            0      0.00%    100.00% # Class of committed instruction (Count)
system.cpu.commit.committedInstType_0::VectorIntegerExtension            0      0.00%    100.00% # Class of committed instruction (Count)
system.cpu.commit.committedInstType_0::VectorConfig            0      0.00%    100.00% # Class of committed instruction (Count)
system.cpu.commit.committedInstType_0::total      7446144                       # Class of committed instruction (Count)
system.cpu.commit.commitEligibleSamples        259525                       # number cycles where commit BW limit reached (Cycle)
system.cpu.commitStats0.numInsts              4033838                       # Number of instructions committed (thread level) (Count)
system.cpu.commitStats0.numOps                7446144                       # Number of ops (including micro ops) committed (thread level) (Count)
system.cpu.commitStats0.numInstsNotNOP        4033838                       # Number of instructions committed excluding NOPs or prefetches (Count)
system.cpu.commitStats0.numOpsNotNOP          7446144                       # Number of Ops (including micro ops) Simulated (Count)
system.cpu.commitStats0.cpi                  1.987431                       # CPI: cycles per instruction (thread level) ((Cycle/Count))
system.cpu.commitStats0.ipc                  0.503162                       # IPC: instructions per cycle (thread level) ((Count/Cycle))
system.cpu.commitStats0.numMemRefs            2333921                       # Number of memory references committed (Count)
system.cpu.commitStats0.numFpInsts               9664                       # Number of float instructions (Count)
system.cpu.commitStats0.numIntInsts           7373537                       # Number of integer instructions (Count)
system.cpu.commitStats0.numLoadInsts          1487983                       # Number of load instructions (Count)
system.cpu.commitStats0.numStoreInsts          845938                       # Number of store instructions (Count)
system.cpu.commitStats0.numVecInsts                 0                       # Number of vector instructions (Count)
system.cpu.commitStats0.committedInstType::No_OpClass          651      0.01%      0.01% # Class of committed instruction. (Count)
system.cpu.commitStats0.committedInstType::IntAlu      5079601     68.22%     68.23% # Class of committed instruction. (Count)
system.cpu.commitStats0.committedInstType::IntMult        22929      0.31%     68.53% # Class of committed instruction. (Count)
system.cpu.commitStats0.committedInstType::IntDiv         1722      0.02%     68.56% # Class of committed instruction. (Count)
system.cpu.commitStats0.committedInstType::FloatAdd          336      0.00%     68.56% # Class of committed instruction. (Count)
system.cpu.commitStats0.committedInstType::FloatCmp            0      0.00%     68.56% # Class of committed instruction. (Count)
system.cpu.commitStats0.committedInstType::FloatCvt            0      0.00%     68.56% # Class of committed instruction. (Count)
system.cpu.commitStats0.committedInstType::FloatMult            0      0.00%     68.56% # Class of committed instruction. (Count)
system.cpu.commitStats0.committedInstType::FloatMultAcc            0      0.00%     68.56% # Class of committed instruction. (Count)
system.cpu.commitStats0.committedInstType::FloatDiv            0      0.00%     68.56% # Class of committed instruction. (Count)
system.cpu.commitStats0.committedInstType::FloatMisc            0      0.00%     68.56% # Class of committed instruction. (Count)
system.cpu.commitStats0.committedInstType::FloatSqrt            0      0.00%     68.56% # Class of committed instruction. (Count)
system.cpu.commitStats0.committedInstType::SimdAdd            0      0.00%     68.56% # Class of committed instruction. (Count)
system.cpu.commitStats0.committedInstType::SimdAddAcc            0      0.00%     68.56% # Class of committed instruction. (Count)
system.cpu.commitStats0.committedInstType::SimdAlu         1686      0.02%     68.58% # Class of committed instruction. (Count)
system.cpu.commitStats0.committedInstType::SimdCmp            6      0.00%     68.58% # Class of committed instruction. (Count)
system.cpu.commitStats0.committedInstType::SimdCvt         1936      0.03%     68.61% # Class of committed instruction. (Count)
system.cpu.commitStats0.committedInstType::SimdMisc         3356      0.05%     68.66% # Class of committed instruction. (Count)
system.cpu.commitStats0.committedInstType::SimdMult            0      0.00%     68.66% # Class of committed instruction. (Count)
system.cpu.commitStats0.committedInstType::SimdMultAcc            0      0.00%     68.66% # Class of committed instruction. (Count)
system.cpu.commitStats0.committedInstType::SimdMatMultAcc            0      0.00%     68.66% # Class of committed instruction. (Count)
system.cpu.commitStats0.committedInstType::SimdShift            0      0.00%     68.66% # Class of committed instruction. (Count)
system.cpu.commitStats0.committedInstType::SimdShiftAcc            0      0.00%     68.66% # Class of committed instruction. (Count)
system.cpu.commitStats0.committedInstType::SimdDiv            0      0.00%     68.66% # Class of committed instruction. (Count)
system.cpu.commitStats0.committedInstType::SimdSqrt            0      0.00%     68.66% # Class of committed instruction. (Count)
system.cpu.commitStats0.committedInstType::SimdFloatAdd            0      0.00%     68.66% # Class of committed instruction. (Count)
system.cpu.commitStats0.committedInstType::SimdFloatAlu            0      0.00%     68.66% # Class of committed instruction. (Count)
system.cpu.commitStats0.committedInstType::SimdFloatCmp            0      0.00%     68.66% # Class of committed instruction. (Count)
system.cpu.commitStats0.committedInstType::SimdFloatCvt            0      0.00%     68.66% # Class of committed instruction. (Count)
system.cpu.commitStats0.committedInstType::SimdFloatDiv            0      0.00%     68.66% # Class of committed instruction. (Count)
system.cpu.commitStats0.committedInstType::SimdFloatMisc            0      0.00%     68.66% # Class of committed instruction. (Count)
system.cpu.commitStats0.committedInstType::SimdFloatMult            0      0.00%     68.66% # Class of committed instruction. (Count)
system.cpu.commitStats0.committedInstType::SimdFloatMultAcc            0      0.00%     68.66% # Class of committed instruction. (Count)
system.cpu.commitStats0.committedInstType::SimdFloatMatMultAcc            0      0.00%     68.66% # Class of committed instruction. (Count)
system.cpu.commitStats0.committedInstType::SimdFloatSqrt            0      0.00%     68.66% # Class of committed instruction. (Count)
system.cpu.commitStats0.committedInstType::SimdReduceAdd            0      0.00%     68.66% # Class of committed instruction. (Count)
system.cpu.commitStats0.committedInstType::SimdReduceAlu            0      0.00%     68.66% # Class of committed instruction. (Count)
system.cpu.commitStats0.committedInstType::SimdReduceCmp            0      0.00%     68.66% # Class of committed instruction. (Count)
system.cpu.commitStats0.committedInstType::SimdFloatReduceAdd            0      0.00%     68.66% # Class of committed instruction. (Count)
system.cpu.commitStats0.committedInstType::SimdFloatReduceCmp            0      0.00%     68.66% # Class of committed instruction. (Count)
system.cpu.commitStats0.committedInstType::SimdAes            0      0.00%     68.66% # Class of committed instruction. (Count)
system.cpu.commitStats0.committedInstType::SimdAesMix            0      0.00%     68.66% # Class of committed instruction. (Count)
system.cpu.commitStats0.committedInstType::SimdSha1Hash            0      0.00%     68.66% # Class of committed instruction. (Count)
system.cpu.commitStats0.committedInstType::SimdSha1Hash2            0      0.00%     68.66% # Class of committed instruction. (Count)
system.cpu.commitStats0.committedInstType::SimdSha256Hash            0      0.00%     68.66% # Class of committed instruction. (Count)
system.cpu.commitStats0.committedInstType::SimdSha256Hash2            0      0.00%     68.66% # Class of committed instruction. (Count)
system.cpu.commitStats0.committedInstType::SimdShaSigma2            0      0.00%     68.66% # Class of committed instruction. (Count)
system.cpu.commitStats0.committedInstType::SimdShaSigma3            0      0.00%     68.66% # Class of committed instruction. (Count)
system.cpu.commitStats0.committedInstType::SimdPredAlu            0      0.00%     68.66% # Class of committed instruction. (Count)
system.cpu.commitStats0.committedInstType::Matrix            0      0.00%     68.66% # Class of committed instruction. (Count)
system.cpu.commitStats0.committedInstType::MatrixMov            0      0.00%     68.66% # Class of committed instruction. (Count)
system.cpu.commitStats0.committedInstType::MatrixOP            0      0.00%     68.66% # Class of committed instruction. (Count)
system.cpu.commitStats0.committedInstType::MemRead      1486985     19.97%     88.63% # Class of committed instruction. (Count)
system.cpu.commitStats0.committedInstType::MemWrite       845778     11.36%     99.98% # Class of committed instruction. (Count)
system.cpu.commitStats0.committedInstType::FloatMemRead          998      0.01%    100.00% # Class of committed instruction. (Count)
system.cpu.commitStats0.committedInstType::FloatMemWrite          160      0.00%    100.00% # Class of committed instruction. (Count)
system.cpu.commitStats0.committedInstType::IprAccess            0      0.00%    100.00% # Class of committed instruction. (Count)
system.cpu.commitStats0.committedInstType::InstPrefetch            0      0.00%    100.00% # Class of committed instruction. (Count)
system.cpu.commitStats0.committedInstType::VectorUnitStrideLoad            0      0.00%    100.00% # Class of committed instruction. (Count)
system.cpu.commitStats0.committedInstType::VectorUnitStrideStore            0      0.00%    100.00% # Class of committed instruction. (Count)
system.cpu.commitStats0.committedInstType::VectorUnitStrideMaskLoad            0      0.00%    100.00% # Class of committed instruction. (Count)
system.cpu.commitStats0.committedInstType::VectorUnitStrideMaskStore            0      0.00%    100.00% # Class of committed instruction. (Count)
system.cpu.commitStats0.committedInstType::VectorStridedLoad            0      0.00%    100.00% # Class of committed instruction. (Count)
system.cpu.commitStats0.committedInstType::VectorStridedStore            0      0.00%    100.00% # Class of committed instruction. (Count)
system.cpu.commitStats0.committedInstType::VectorIndexedLoad            0      0.00%    100.00% # Class of committed instruction. (Count)
system.cpu.commitStats0.committedInstType::VectorIndexedStore            0      0.00%    100.00% # Class of committed instruction. (Count)
system.cpu.commitStats0.committedInstType::VectorUnitStrideFaultOnlyFirstLoad            0      0.00%    100.00% # Class of committed instruction. (Count)
system.cpu.commitStats0.committedInstType::VectorWholeRegisterLoad            0      0.00%    100.00% # Class of committed instruction. (Count)
system.cpu.commitStats0.committedInstType::VectorWholeRegisterStore            0      0.00%    100.00% # Class of committed instruction. (Count)
system.cpu.commitStats0.committedInstType::VectorIntegerArith            0      0.00%    100.00% # Class of committed instruction. (Count)
system.cpu.commitStats0.committedInstType::VectorFloatArith            0      0.00%    100.00% # Class of committed instruction. (Count)
system.cpu.commitStats0.committedInstType::VectorFloatConvert            0      0.00%    100.00% # Class of committed instruction. (Count)
system.cpu.commitStats0.committedInstType::VectorIntegerReduce            0      0.00%    100.00% # Class of committed instruction. (Count)
system.cpu.commitStats0.committedInstType::VectorFloatReduce            0      0.00%    100.00% # Class of committed instruction. (Count)
system.cpu.commitStats0.committedInstType::VectorMisc            0      0.00%    100.00% # Class of committed instruction. (Count)
system.cpu.commitStats0.committedInstType::VectorIntegerExtension            0      0.00%    100.00% # Class of committed instruction. (Count)
system.cpu.commitStats0.committedInstType::VectorConfig            0      0.00%    100.00% # Class of committed instruction. (Count)
system.cpu.commitStats0.committedInstType::total      7446144                       # Class of committed instruction. (Count)
system.cpu.commitStats0.committedControl::IsControl       585698                       # Class of control type instructions committed (Count)
system.cpu.commitStats0.committedControl::IsDirectControl       580069                       # Class of control type instructions committed (Count)
system.cpu.commitStats0.committedControl::IsIndirectControl         5629                       # Class of control type instructions committed (Count)
system.cpu.commitStats0.committedControl::IsCondControl       563891                       # Class of control type instructions committed (Count)
system.cpu.commitStats0.committedControl::IsUncondControl        21807                       # Class of control type instructions committed (Count)
system.cpu.commitStats0.committedControl::IsCall         4590                       # Class of control type instructions committed (Count)
system.cpu.commitStats0.committedControl::IsReturn         4585                       # Class of control type instructions committed (Count)
system.cpu.dcache.demandHits::cpu.data        1279448                       # number of demand (read+write) hits (Count)
system.cpu.dcache.demandHits::total           1279448                       # number of demand (read+write) hits (Count)
system.cpu.dcache.overallHits::cpu.data       1279448                       # number of overall hits (Count)
system.cpu.dcache.overallHits::total          1279448                       # number of overall hits (Count)
system.cpu.dcache.demandMisses::cpu.data        28712                       # number of demand (read+write) misses (Count)
system.cpu.dcache.demandMisses::total           28712                       # number of demand (read+write) misses (Count)
system.cpu.dcache.overallMisses::cpu.data        28712                       # number of overall misses (Count)
system.cpu.dcache.overallMisses::total          28712                       # number of overall misses (Count)
system.cpu.dcache.demandMissLatency::cpu.data   2556958000                       # number of demand (read+write) miss ticks (Tick)
system.cpu.dcache.demandMissLatency::total   2556958000                       # number of demand (read+write) miss ticks (Tick)
system.cpu.dcache.overallMissLatency::cpu.data   2556958000                       # number of overall miss ticks (Tick)
system.cpu.dcache.overallMissLatency::total   2556958000                       # number of overall miss ticks (Tick)
system.cpu.dcache.demandAccesses::cpu.data      1308160                       # number of demand (read+write) accesses (Count)
system.cpu.dcache.demandAccesses::total       1308160                       # number of demand (read+write) accesses (Count)
system.cpu.dcache.overallAccesses::cpu.data      1308160                       # number of overall (read+write) accesses (Count)
system.cpu.dcache.overallAccesses::total      1308160                       # number of overall (read+write) accesses (Count)
system.cpu.dcache.demandMissRate::cpu.data     0.021948                       # miss rate for demand accesses (Ratio)
system.cpu.dcache.demandMissRate::total      0.021948                       # miss rate for demand accesses (Ratio)
system.cpu.dcache.overallMissRate::cpu.data     0.021948                       # miss rate for overall accesses (Ratio)
system.cpu.dcache.overallMissRate::total     0.021948                       # miss rate for overall accesses (Ratio)
system.cpu.dcache.demandAvgMissLatency::cpu.data 89055.377542                       # average overall miss latency in ticks ((Tick/Count))
system.cpu.dcache.demandAvgMissLatency::total 89055.377542                       # average overall miss latency in ticks ((Tick/Count))
system.cpu.dcache.overallAvgMissLatency::cpu.data 89055.377542                       # average overall miss latency ((Tick/Count))
system.cpu.dcache.overallAvgMissLatency::total 89055.377542                       # average overall miss latency ((Tick/Count))
system.cpu.dcache.blockedCycles::no_mshrs          203                       # number of cycles access was blocked (Cycle)
system.cpu.dcache.blockedCycles::no_targets            0                       # number of cycles access was blocked (Cycle)
system.cpu.dcache.blockedCauses::no_mshrs            6                       # number of times access was blocked (Count)
system.cpu.dcache.blockedCauses::no_targets            0                       # number of times access was blocked (Count)
system.cpu.dcache.avgBlocked::no_mshrs      33.833333                       # average number of cycles each access was blocked ((Cycle/Count))
system.cpu.dcache.avgBlocked::no_targets          nan                       # average number of cycles each access was blocked ((Cycle/Count))
system.cpu.dcache.writebacks::writebacks         1555                       # number of writebacks (Count)
system.cpu.dcache.writebacks::total              1555                       # number of writebacks (Count)
system.cpu.dcache.demandMshrHits::cpu.data         3021                       # number of demand (read+write) MSHR hits (Count)
system.cpu.dcache.demandMshrHits::total          3021                       # number of demand (read+write) MSHR hits (Count)
system.cpu.dcache.overallMshrHits::cpu.data         3021                       # number of overall MSHR hits (Count)
system.cpu.dcache.overallMshrHits::total         3021                       # number of overall MSHR hits (Count)
system.cpu.dcache.demandMshrMisses::cpu.data        25691                       # number of demand (read+write) MSHR misses (Count)
system.cpu.dcache.demandMshrMisses::total        25691                       # number of demand (read+write) MSHR misses (Count)
system.cpu.dcache.overallMshrMisses::cpu.data        25691                       # number of overall MSHR misses (Count)
system.cpu.dcache.overallMshrMisses::total        25691                       # number of overall MSHR misses (Count)
system.cpu.dcache.demandMshrMissLatency::cpu.data   2441352000                       # number of demand (read+write) MSHR miss ticks (Tick)
system.cpu.dcache.demandMshrMissLatency::total   2441352000                       # number of demand (read+write) MSHR miss ticks (Tick)
system.cpu.dcache.overallMshrMissLatency::cpu.data   2441352000                       # number of overall MSHR miss ticks (Tick)
system.cpu.dcache.overallMshrMissLatency::total   2441352000                       # number of overall MSHR miss ticks (Tick)
system.cpu.dcache.demandMshrMissRate::cpu.data     0.019639                       # mshr miss ratio for demand accesses (Ratio)
system.cpu.dcache.demandMshrMissRate::total     0.019639                       # mshr miss ratio for demand accesses (Ratio)
system.cpu.dcache.overallMshrMissRate::cpu.data     0.019639                       # mshr miss ratio for overall accesses (Ratio)
system.cpu.dcache.overallMshrMissRate::total     0.019639                       # mshr miss ratio for overall accesses (Ratio)
system.cpu.dcache.demandAvgMshrMissLatency::cpu.data 95027.519365                       # average overall mshr miss latency ((Tick/Count))
system.cpu.dcache.demandAvgMshrMissLatency::total 95027.519365                       # average overall mshr miss latency ((Tick/Count))
system.cpu.dcache.overallAvgMshrMissLatency::cpu.data 95027.519365                       # average overall mshr miss latency ((Tick/Count))
system.cpu.dcache.overallAvgMshrMissLatency::total 95027.519365                       # average overall mshr miss latency ((Tick/Count))
system.cpu.dcache.replacements                  12319                       # number of replacements (Count)
system.cpu.dcache.CleanInvalidReq.missLatency::cpu.data    667353000                       # number of CleanInvalidReq miss ticks (Tick)
system.cpu.dcache.CleanInvalidReq.missLatency::total    667353000                       # number of CleanInvalidReq miss ticks (Tick)
system.cpu.dcache.CleanInvalidReq.avgMissLatency::cpu.data          inf                       # average CleanInvalidReq miss latency ((Tick/Count))
system.cpu.dcache.CleanInvalidReq.avgMissLatency::total          inf                       # average CleanInvalidReq miss latency ((Tick/Count))
system.cpu.dcache.CleanInvalidReq.mshrMisses::cpu.data        22880                       # number of CleanInvalidReq MSHR misses (Count)
system.cpu.dcache.CleanInvalidReq.mshrMisses::total        22880                       # number of CleanInvalidReq MSHR misses (Count)
system.cpu.dcache.CleanInvalidReq.mshrMissLatency::cpu.data   1190375000                       # number of CleanInvalidReq MSHR miss ticks (Tick)
system.cpu.dcache.CleanInvalidReq.mshrMissLatency::total   1190375000                       # number of CleanInvalidReq MSHR miss ticks (Tick)
system.cpu.dcache.CleanInvalidReq.mshrMissRate::cpu.data          inf                       # mshr miss rate for CleanInvalidReq accesses (Ratio)
system.cpu.dcache.CleanInvalidReq.mshrMissRate::total          inf                       # mshr miss rate for CleanInvalidReq accesses (Ratio)
system.cpu.dcache.CleanInvalidReq.avgMshrMissLatency::cpu.data 52026.879371                       # average CleanInvalidReq mshr miss latency ((Tick/Count))
system.cpu.dcache.CleanInvalidReq.avgMshrMissLatency::total 52026.879371                       # average CleanInvalidReq mshr miss latency ((Tick/Count))
system.cpu.dcache.ReadReq.hits::cpu.data       458572                       # number of ReadReq hits (Count)
system.cpu.dcache.ReadReq.hits::total          458572                       # number of ReadReq hits (Count)
system.cpu.dcache.ReadReq.misses::cpu.data        26487                       # number of ReadReq misses (Count)
system.cpu.dcache.ReadReq.misses::total         26487                       # number of ReadReq misses (Count)
system.cpu.dcache.ReadReq.missLatency::cpu.data   2337260000                       # number of ReadReq miss ticks (Tick)
system.cpu.dcache.ReadReq.missLatency::total   2337260000                       # number of ReadReq miss ticks (Tick)
system.cpu.dcache.ReadReq.accesses::cpu.data       485059                       # number of ReadReq accesses(hits+misses) (Count)
system.cpu.dcache.ReadReq.accesses::total       485059                       # number of ReadReq accesses(hits+misses) (Count)
system.cpu.dcache.ReadReq.missRate::cpu.data     0.054606                       # miss rate for ReadReq accesses (Ratio)
system.cpu.dcache.ReadReq.missRate::total     0.054606                       # miss rate for ReadReq accesses (Ratio)
system.cpu.dcache.ReadReq.avgMissLatency::cpu.data 88241.778986                       # average ReadReq miss latency ((Tick/Count))
system.cpu.dcache.ReadReq.avgMissLatency::total 88241.778986                       # average ReadReq miss latency ((Tick/Count))
system.cpu.dcache.ReadReq.mshrHits::cpu.data         3018                       # number of ReadReq MSHR hits (Count)
system.cpu.dcache.ReadReq.mshrHits::total         3018                       # number of ReadReq MSHR hits (Count)
system.cpu.dcache.ReadReq.mshrMisses::cpu.data        23469                       # number of ReadReq MSHR misses (Count)
system.cpu.dcache.ReadReq.mshrMisses::total        23469                       # number of ReadReq MSHR misses (Count)
system.cpu.dcache.ReadReq.mshrMissLatency::cpu.data   2226397000                       # number of ReadReq MSHR miss ticks (Tick)
system.cpu.dcache.ReadReq.mshrMissLatency::total   2226397000                       # number of ReadReq MSHR miss ticks (Tick)
system.cpu.dcache.ReadReq.mshrMissRate::cpu.data     0.048384                       # mshr miss rate for ReadReq accesses (Ratio)
system.cpu.dcache.ReadReq.mshrMissRate::total     0.048384                       # mshr miss rate for ReadReq accesses (Ratio)
system.cpu.dcache.ReadReq.avgMshrMissLatency::cpu.data 94865.439516                       # average ReadReq mshr miss latency ((Tick/Count))
system.cpu.dcache.ReadReq.avgMshrMissLatency::total 94865.439516                       # average ReadReq mshr miss latency ((Tick/Count))
system.cpu.dcache.WriteReq.hits::cpu.data       820876                       # number of WriteReq hits (Count)
system.cpu.dcache.WriteReq.hits::total         820876                       # number of WriteReq hits (Count)
system.cpu.dcache.WriteReq.misses::cpu.data         2225                       # number of WriteReq misses (Count)
system.cpu.dcache.WriteReq.misses::total         2225                       # number of WriteReq misses (Count)
system.cpu.dcache.WriteReq.missLatency::cpu.data    219698000                       # number of WriteReq miss ticks (Tick)
system.cpu.dcache.WriteReq.missLatency::total    219698000                       # number of WriteReq miss ticks (Tick)
system.cpu.dcache.WriteReq.accesses::cpu.data       823101                       # number of WriteReq accesses(hits+misses) (Count)
system.cpu.dcache.WriteReq.accesses::total       823101                       # number of WriteReq accesses(hits+misses) (Count)
system.cpu.dcache.WriteReq.missRate::cpu.data     0.002703                       # miss rate for WriteReq accesses (Ratio)
system.cpu.dcache.WriteReq.missRate::total     0.002703                       # miss rate for WriteReq accesses (Ratio)
system.cpu.dcache.WriteReq.avgMissLatency::cpu.data 98740.674157                       # average WriteReq miss latency ((Tick/Count))
system.cpu.dcache.WriteReq.avgMissLatency::total 98740.674157                       # average WriteReq miss latency ((Tick/Count))
system.cpu.dcache.WriteReq.mshrHits::cpu.data            3                       # number of WriteReq MSHR hits (Count)
system.cpu.dcache.WriteReq.mshrHits::total            3                       # number of WriteReq MSHR hits (Count)
system.cpu.dcache.WriteReq.mshrMisses::cpu.data         2222                       # number of WriteReq MSHR misses (Count)
system.cpu.dcache.WriteReq.mshrMisses::total         2222                       # number of WriteReq MSHR misses (Count)
system.cpu.dcache.WriteReq.mshrMissLatency::cpu.data    214955000                       # number of WriteReq MSHR miss ticks (Tick)
system.cpu.dcache.WriteReq.mshrMissLatency::total    214955000                       # number of WriteReq MSHR miss ticks (Tick)
system.cpu.dcache.WriteReq.mshrMissRate::cpu.data     0.002700                       # mshr miss rate for WriteReq accesses (Ratio)
system.cpu.dcache.WriteReq.mshrMissRate::total     0.002700                       # mshr miss rate for WriteReq accesses (Ratio)
system.cpu.dcache.WriteReq.avgMshrMissLatency::cpu.data 96739.423942                       # average WriteReq mshr miss latency ((Tick/Count))
system.cpu.dcache.WriteReq.avgMshrMissLatency::total 96739.423942                       # average WriteReq mshr miss latency ((Tick/Count))
system.cpu.dcache.power_state.pwrStateResidencyTicks::UNDEFINED   8016974000                       # Cumulative time (in ticks) in various power states (Tick)
system.cpu.dcache.tags.tagsInUse           953.180441                       # Average ticks per tags in use ((Tick/Count))
system.cpu.dcache.tags.totalRefs              1317485                       # Total number of references to valid blocks. (Count)
system.cpu.dcache.tags.sampledRefs              25690                       # Sample count of references to valid blocks. (Count)
system.cpu.dcache.tags.avgRefs              51.283963                       # Average number of references to valid blocks. ((Count/Count))
system.cpu.dcache.tags.warmupTick              222000                       # The tick when the warmup percentage was hit. (Tick)
system.cpu.dcache.tags.occupancies::cpu.data   953.180441                       # Average occupied blocks per tick, per requestor ((Count/Tick))
system.cpu.dcache.tags.avgOccs::cpu.data     0.930840                       # Average percentage of cache occupancy ((Ratio/Tick))
system.cpu.dcache.tags.avgOccs::total        0.930840                       # Average percentage of cache occupancy ((Ratio/Tick))
system.cpu.dcache.tags.occupanciesTaskId::1024         1024                       # Occupied blocks per task id (Count)
system.cpu.dcache.tags.ageTaskId_1024::0           42                       # Occupied blocks per task id, per block age (Count)
system.cpu.dcache.tags.ageTaskId_1024::1          103                       # Occupied blocks per task id, per block age (Count)
system.cpu.dcache.tags.ageTaskId_1024::3          879                       # Occupied blocks per task id, per block age (Count)
system.cpu.dcache.tags.ratioOccsTaskId::1024            1                       # Ratio of occupied blocks and all blocks, per task id (Ratio)
system.cpu.dcache.tags.tagAccesses            2687770                       # Number of tag accesses (Count)
system.cpu.dcache.tags.dataAccesses           2687770                       # Number of data accesses (Count)
system.cpu.dcache.tags.power_state.pwrStateResidencyTicks::UNDEFINED   8016974000                       # Cumulative time (in ticks) in various power states (Tick)
system.cpu.decode.idleCycles                   652429                       # Number of cycles decode is idle (Cycle)
system.cpu.decode.blockedCycles               5840191                       # Number of cycles decode is blocked (Cycle)
system.cpu.decode.runCycles                    724934                       # Number of cycles decode is running (Cycle)
system.cpu.decode.unblockCycles                727721                       # Number of cycles decode is unblocking (Cycle)
system.cpu.decode.squashCycles                  45368                       # Number of cycles decode is squashing (Cycle)
system.cpu.decode.branchResolved               663778                       # Number of times decode resolved a branch (Count)
system.cpu.decode.branchMispred                   487                       # Number of times decode detected a branch misprediction (Count)
system.cpu.decode.decodedInsts               10494070                       # Number of instructions handled by decode (Count)
system.cpu.decode.squashedInsts                  1557                       # Number of squashed instructions handled by decode (Count)
system.cpu.executeStats0.numInsts             8488169                       # Number of executed instructions (Count)
system.cpu.executeStats0.numNop                     0                       # Number of nop insts executed (Count)
system.cpu.executeStats0.numBranches           642045                       # Number of branches executed (Count)
[...]
system.mem_ctrl.dram.numReads::cpu.inst           575                       # Number of read requests responded to by this memory (Count)
system.mem_ctrl.dram.numReads::cpu.data         25164                       # Number of read requests responded to by this memory (Count)
system.mem_ctrl.dram.numReads::total            25739                       # Number of read requests responded to by this memory (Count)
system.mem_ctrl.dram.numWrites::writebacks          257                       # Number of write requests responded to by this memory (Count)
system.mem_ctrl.dram.numWrites::total             257                       # Number of write requests responded to by this memory (Count)
system.mem_ctrl.dram.bwRead::cpu.inst         4590261                       # Total read bandwidth from this memory ((Byte/Second))
system.mem_ctrl.dram.bwRead::cpu.data       200885771                       # Total read bandwidth from this memory ((Byte/Second))
system.mem_ctrl.dram.bwRead::total          205476031                       # Total read bandwidth from this memory ((Byte/Second))
system.mem_ctrl.dram.bwInstRead::cpu.inst      4590261                       # Instruction read bandwidth from this memory ((Byte/Second))
system.mem_ctrl.dram.bwInstRead::total        4590261                       # Instruction read bandwidth from this memory ((Byte/Second))
system.mem_ctrl.dram.bwWrite::writebacks      2051647                       # Write bandwidth from this memory ((Byte/Second))
system.mem_ctrl.dram.bwWrite::total           2051647                       # Write bandwidth from this memory ((Byte/Second))
system.mem_ctrl.dram.bwTotal::writebacks      2051647                       # Total bandwidth to/from this memory ((Byte/Second))
system.mem_ctrl.dram.bwTotal::cpu.inst        4590261                       # Total bandwidth to/from this memory ((Byte/Second))
system.mem_ctrl.dram.bwTotal::cpu.data      200885771                       # Total bandwidth to/from this memory ((Byte/Second))
system.mem_ctrl.dram.bwTotal::total         207527678                       # Total bandwidth to/from this memory ((Byte/Second))
system.mem_ctrl.dram.readBursts                 21899                       # Number of DRAM read bursts (Count)
system.mem_ctrl.dram.writeBursts                  238                       # Number of DRAM write bursts (Count)
system.mem_ctrl.dram.perBankRdBursts::0          1502                       # Per bank write bursts (Count)
system.mem_ctrl.dram.perBankRdBursts::1          1434                       # Per bank write bursts (Count)
system.mem_ctrl.dram.perBankRdBursts::2          1469                       # Per bank write bursts (Count)
system.mem_ctrl.dram.perBankRdBursts::3          1432                       # Per bank write bursts (Count)
system.mem_ctrl.dram.perBankRdBursts::4          1408                       # Per bank write bursts (Count)
system.mem_ctrl.dram.perBankRdBursts::5          1417                       # Per bank write bursts (Count)
system.mem_ctrl.dram.perBankRdBursts::6           707                       # Per bank write bursts (Count)
system.mem_ctrl.dram.perBankRdBursts::7           821                       # Per bank write bursts (Count)
system.mem_ctrl.dram.perBankRdBursts::8          1459                       # Per bank write bursts (Count)
system.mem_ctrl.dram.perBankRdBursts::9          1458                       # Per bank write bursts (Count)
system.mem_ctrl.dram.perBankRdBursts::10         1508                       # Per bank write bursts (Count)
system.mem_ctrl.dram.perBankRdBursts::11         1491                       # Per bank write bursts (Count)
system.mem_ctrl.dram.perBankRdBursts::12         1433                       # Per bank write bursts (Count)
system.mem_ctrl.dram.perBankRdBursts::13         1458                       # Per bank write bursts (Count)
system.mem_ctrl.dram.perBankRdBursts::14         1442                       # Per bank write bursts (Count)
system.mem_ctrl.dram.perBankRdBursts::15         1460                       # Per bank write bursts (Count)
system.mem_ctrl.dram.perBankWrBursts::0            16                       # Per bank write bursts (Count)
system.mem_ctrl.dram.perBankWrBursts::1            16                       # Per bank write bursts (Count)
system.mem_ctrl.dram.perBankWrBursts::2            16                       # Per bank write bursts (Count)
system.mem_ctrl.dram.perBankWrBursts::3            16                       # Per bank write bursts (Count)
system.mem_ctrl.dram.perBankWrBursts::4            16                       # Per bank write bursts (Count)
system.mem_ctrl.dram.perBankWrBursts::5            16                       # Per bank write bursts (Count)
system.mem_ctrl.dram.perBankWrBursts::6             6                       # Per bank write bursts (Count)
system.mem_ctrl.dram.perBankWrBursts::7             8                       # Per bank write bursts (Count)
system.mem_ctrl.dram.perBankWrBursts::8            16                       # Per bank write bursts (Count)
system.mem_ctrl.dram.perBankWrBursts::9            16                       # Per bank write bursts (Count)
system.mem_ctrl.dram.perBankWrBursts::10           16                       # Per bank write bursts (Count)
system.mem_ctrl.dram.perBankWrBursts::11           16                       # Per bank write bursts (Count)
system.mem_ctrl.dram.perBankWrBursts::12           16                       # Per bank write bursts (Count)
system.mem_ctrl.dram.perBankWrBursts::13           16                       # Per bank write bursts (Count)
system.mem_ctrl.dram.perBankWrBursts::14           16                       # Per bank write bursts (Count)
system.mem_ctrl.dram.perBankWrBursts::15           16                       # Per bank write bursts (Count)
system.mem_ctrl.dram.totQLat                202953000                       # Total ticks spent queuing (Tick)
system.mem_ctrl.dram.totBusLat              109495000                       # Total ticks spent in databus transfers (Tick)
system.mem_ctrl.dram.totMemAccLat           613559250                       # Total ticks spent from burst creation until serviced by the DRAM (Tick)
system.mem_ctrl.dram.avgQLat                  9267.68                       # Average queueing delay per DRAM burst ((Tick/Count))
system.mem_ctrl.dram.avgBusLat                5000.00                       # Average bus latency per DRAM burst ((Tick/Count))
system.mem_ctrl.dram.avgMemAccLat            28017.68                       # Average memory access latency per DRAM burst ((Tick/Count))
system.mem_ctrl.dram.readRowHits                13683                       # Number of row buffer hits during reads (Count)
system.mem_ctrl.dram.writeRowHits                 219                       # Number of row buffer hits during writes (Count)
system.mem_ctrl.dram.readRowHitRate             62.48                       # Row buffer hit rate for reads (Ratio)
system.mem_ctrl.dram.writeRowHitRate            92.02                       # Row buffer hit rate for writes (Ratio)
system.mem_ctrl.dram.bytesPerActivate::samples         8229                       # Bytes accessed per row activation (Byte)
system.mem_ctrl.dram.bytesPerActivate::mean   172.089926                       # Bytes accessed per row activation (Byte)
system.mem_ctrl.dram.bytesPerActivate::gmean   147.232863                       # Bytes accessed per row activation (Byte)
system.mem_ctrl.dram.bytesPerActivate::stdev   126.367021                       # Bytes accessed per row activation (Byte)
system.mem_ctrl.dram.bytesPerActivate::0-127         1450     17.62%     17.62% # Bytes accessed per row activation (Byte)
system.mem_ctrl.dram.bytesPerActivate::128-255         4707     57.20%     74.82% # Bytes accessed per row activation (Byte)
system.mem_ctrl.dram.bytesPerActivate::256-383         1830     22.24%     97.06% # Bytes accessed per row activation (Byte)
system.mem_ctrl.dram.bytesPerActivate::384-511          100      1.22%     98.27% # Bytes accessed per row activation (Byte)
system.mem_ctrl.dram.bytesPerActivate::512-639            8      0.10%     98.37% # Bytes accessed per row activation (Byte)
system.mem_ctrl.dram.bytesPerActivate::640-767           12      0.15%     98.52% # Bytes accessed per row activation (Byte)
system.mem_ctrl.dram.bytesPerActivate::768-895            5      0.06%     98.58% # Bytes accessed per row activation (Byte)
system.mem_ctrl.dram.bytesPerActivate::896-1023            5      0.06%     98.64% # Bytes accessed per row activation (Byte)
system.mem_ctrl.dram.bytesPerActivate::1024-1151          112      1.36%    100.00% # Bytes accessed per row activation (Byte)
system.mem_ctrl.dram.bytesPerActivate::total         8229                       # Bytes accessed per row activation (Byte)
system.mem_ctrl.dram.bytesRead                1401536                       # Total bytes read (Byte)
system.mem_ctrl.dram.bytesWritten               15232                       # Total bytes written (Byte)
system.mem_ctrl.dram.avgRdBW               174.821073                       # Average DRAM read bandwidth in MiBytes/s ((Byte/Second))
system.mem_ctrl.dram.avgWrBW                 1.899969                       # Average DRAM write bandwidth in MiBytes/s ((Byte/Second))
system.mem_ctrl.dram.peakBW                  12800.00                       # Theoretical peak bandwidth in MiByte/s ((Byte/Second))
system.mem_ctrl.dram.busUtil                     1.38                       # Data bus utilization in percentage (Ratio)
system.mem_ctrl.dram.busUtilRead                 1.37                       # Data bus utilization in percentage for reads (Ratio)
system.mem_ctrl.dram.busUtilWrite                0.01                       # Data bus utilization in percentage for writes (Ratio)
system.mem_ctrl.dram.pageHitRate                62.80                       # Row buffer hit rate, read and write combined (Ratio)
system.mem_ctrl.dram.power_state.pwrStateResidencyTicks::UNDEFINED   8016974000                       # Cumulative time (in ticks) in various power states (Tick)
system.mem_ctrl.dram.rank0.actEnergy         28031640                       # Energy for activate commands per rank (pJ) (Joule)
system.mem_ctrl.dram.rank0.preEnergy         14887785                       # Energy for precharge commands per rank (pJ) (Joule)
system.mem_ctrl.dram.rank0.readEnergy        72756600                       # Energy for read commands per rank (pJ) (Joule)
system.mem_ctrl.dram.rank0.writeEnergy         574200                       # Energy for write commands per rank (pJ) (Joule)
system.mem_ctrl.dram.rank0.refreshEnergy 632464560.000000                       # Energy for refresh commands per rank (pJ) (Joule)
system.mem_ctrl.dram.rank0.actBackEnergy   2037111600                       # Energy for active background per rank (pJ) (Joule)
system.mem_ctrl.dram.rank0.preBackEnergy   1363056000                       # Energy for precharge background per rank (pJ) (Joule)
system.mem_ctrl.dram.rank0.actPowerDownEnergy            0                       # Energy for active power-down per rank (pJ) (Joule)
system.mem_ctrl.dram.rank0.prePowerDownEnergy            0                       # Energy for precharge power-down per rank (pJ) (Joule)
system.mem_ctrl.dram.rank0.selfRefreshEnergy            0                       # Energy for self refresh per rank (pJ) (Joule)
system.mem_ctrl.dram.rank0.totalEnergy     4148882385                       # Total energy per rank (pJ) (Joule)
system.mem_ctrl.dram.rank0.averagePower    517.512266                       # Core power per rank (mW) (Watt)
system.mem_ctrl.dram.rank0.totalIdleTime            0                       # Total Idle time Per DRAM Rank (Tick)
system.mem_ctrl.dram.rank0.pwrStateTime::IDLE   3526081500                       # Time in different power states (Tick)
system.mem_ctrl.dram.rank0.pwrStateTime::REF    267540000                       # Time in different power states (Tick)
system.mem_ctrl.dram.rank0.pwrStateTime::SREF            0                       # Time in different power states (Tick)
system.mem_ctrl.dram.rank0.pwrStateTime::PRE_PDN            0                       # Time in different power states (Tick)
system.mem_ctrl.dram.rank0.pwrStateTime::ACT   4223352500                       # Time in different power states (Tick)
system.mem_ctrl.dram.rank0.pwrStateTime::ACT_PDN            0                       # Time in different power states (Tick)
system.mem_ctrl.dram.rank1.actEnergy         30766260                       # Energy for activate commands per rank (pJ) (Joule)
system.mem_ctrl.dram.rank1.preEnergy         16341270                       # Energy for precharge commands per rank (pJ) (Joule)
system.mem_ctrl.dram.rank1.readEnergy        83602260                       # Energy for read commands per rank (pJ) (Joule)
system.mem_ctrl.dram.rank1.writeEnergy         668160                       # Energy for write commands per rank (pJ) (Joule)
system.mem_ctrl.dram.rank1.refreshEnergy 632464560.000000                       # Energy for refresh commands per rank (pJ) (Joule)
system.mem_ctrl.dram.rank1.actBackEnergy   2173502910                       # Energy for active background per rank (pJ) (Joule)
system.mem_ctrl.dram.rank1.preBackEnergy   1248200160                       # Energy for precharge background per rank (pJ) (Joule)
system.mem_ctrl.dram.rank1.actPowerDownEnergy            0                       # Energy for active power-down per rank (pJ) (Joule)
system.mem_ctrl.dram.rank1.prePowerDownEnergy            0                       # Energy for precharge power-down per rank (pJ) (Joule)
system.mem_ctrl.dram.rank1.selfRefreshEnergy            0                       # Energy for self refresh per rank (pJ) (Joule)
system.mem_ctrl.dram.rank1.totalEnergy     4185545580                       # Total energy per rank (pJ) (Joule)
system.mem_ctrl.dram.rank1.averagePower    522.085463                       # Core power per rank (mW) (Watt)
system.mem_ctrl.dram.rank1.totalIdleTime            0                       # Total Idle time Per DRAM Rank (Tick)
system.mem_ctrl.dram.rank1.pwrStateTime::IDLE   3225986000                       # Time in different power states (Tick)
system.mem_ctrl.dram.rank1.pwrStateTime::REF    267540000                       # Time in different power states (Tick)
system.mem_ctrl.dram.rank1.pwrStateTime::SREF            0                       # Time in different power states (Tick)
system.mem_ctrl.dram.rank1.pwrStateTime::PRE_PDN            0                       # Time in different power states (Tick)
system.mem_ctrl.dram.rank1.pwrStateTime::ACT   4523448000                       # Time in different power states (Tick)
system.mem_ctrl.dram.rank1.pwrStateTime::ACT_PDN            0                       # Time in different power states (Tick)
system.mem_ctrl.power_state.pwrStateResidencyTicks::UNDEFINED   8016974000                       # Cumulative time (in ticks) in various power states (Tick)
system.membus.transDist::ReadResp               23560                       # Transaction distribution (Count)
system.membus.transDist::WriteClean               257                       # Transaction distribution (Count)
system.membus.transDist::CleanEvict                 5                       # Transaction distribution (Count)
system.membus.transDist::ReadExReq               2178                       # Transaction distribution (Count)
system.membus.transDist::ReadExResp              2178                       # Transaction distribution (Count)
system.membus.transDist::ReadSharedReq          23561                       # Transaction distribution (Count)
system.membus.transDist::CleanInvalidReq        22880                       # Transaction distribution (Count)
system.membus.pktCount_system.l2cache.mem_side_port::system.mem_ctrl.port        74619                       # Packet count per connected requestor and responder (Count)
system.membus.pktCount_system.l2cache.mem_side_port::total        74619                       # Packet count per connected requestor and responder (Count)
system.membus.pktCount::total                   74619                       # Packet count per connected requestor and responder (Count)
system.membus.pktSize_system.l2cache.mem_side_port::system.mem_ctrl.port      1663680                       # Cumulative packet size per connected requestor and responder (Byte)
system.membus.pktSize_system.l2cache.mem_side_port::total      1663680                       # Cumulative packet size per connected requestor and responder (Byte)
system.membus.pktSize::total                  1663680                       # Cumulative packet size per connected requestor and responder (Byte)
system.membus.snoops                                0                       # Total snoops (Count)
system.membus.snoopTraffic                          0                       # Total snoop traffic (Byte)
system.membus.snoopFanout::samples              48619                       # Request fanout histogram (Count)
system.membus.snoopFanout::mean                     0                       # Request fanout histogram (Count)
system.membus.snoopFanout::stdev                    0                       # Request fanout histogram (Count)
system.membus.snoopFanout::underflows               0      0.00%      0.00% # Request fanout histogram (Count)
system.membus.snoopFanout::0                    48619    100.00%    100.00% # Request fanout histogram (Count)
system.membus.snoopFanout::1                        0      0.00%    100.00% # Request fanout histogram (Count)
system.membus.snoopFanout::overflows                0      0.00%    100.00% # Request fanout histogram (Count)
system.membus.snoopFanout::min_value                0                       # Request fanout histogram (Count)
system.membus.snoopFanout::max_value                0                       # Request fanout histogram (Count)
system.membus.snoopFanout::total                48619                       # Request fanout histogram (Count)
system.membus.power_state.pwrStateResidencyTicks::UNDEFINED   8016974000                       # Cumulative time (in ticks) in various power states (Tick)
system.membus.reqLayer2.occupancy            49909000                       # Layer occupancy (ticks) (Tick)
system.membus.reqLayer2.utilization               0.0                       # Layer utilization (Ratio)
system.membus.respLayer0.occupancy          136156250                       # Layer occupancy (ticks) (Tick)
system.membus.respLayer0.utilization              0.0                       # Layer utilization (Ratio)
system.membus.snoop_filter.totRequests          48624                       # Total number of requests made to the snoop filter. (Count)
system.membus.snoop_filter.hitSingleRequests        22885                       # Number of requests hitting in the snoop filter with a single holder of the requested data. (Count)
system.membus.snoop_filter.hitMultiRequests            0                       # Number of requests hitting in the snoop filter with multiple (>1) holders of the requested data. (Count)
system.membus.snoop_filter.totSnoops                0                       # Total number of snoops made to the snoop filter. (Count)
system.membus.snoop_filter.hitSingleSnoops            0                       # Number of snoops hitting in the snoop filter with a single holder of the requested data. (Count)
system.membus.snoop_filter.hitMultiSnoops            0                       # Number of snoops hitting in the snoop filter with multiple (>1) holders of the requested data. (Count)
system.workload.inst.arm                            0                       # number of arm instructions executed (Count)
system.workload.inst.quiesce                        0                       # number of quiesce instructions executed (Count)

---------- End Simulation Statistics   ----------
