
---------- Begin Simulation Statistics ----------
simSeconds                                   0.476841                       # Number of seconds simulated (Second)
simTicks                                 476841169000                       # Number of ticks simulated (Tick)
finalTick                                476841169000                       # Number of ticks from beginning of simulation (restored from checkpoints and never reset) (Tick)
simFreq                                  1000000000000                       # The number of ticks per simulated second ((Tick/Second))
hostSeconds                                    696.30                       # Real time elapsed on the host (Second)
hostTickRate                                684818926                       # The number of ticks simulated per host second (ticks/s) ((Tick/Second))
hostMemory                                     724504                       # Number of bytes of host memory used (Byte)
simInsts                                    205546565                       # Number of instructions simulated (Count)
simOps                                      351508316                       # Number of ops (including micro ops) simulated (Count)
hostInstRate                                   295197                       # Simulator instruction rate (inst/s) ((Count/Second))
hostOpRate                                     504821                       # Simulator op (including micro ops) rate (op/s) ((Count/Second))
system.clk_domain.clock                          1000                       # Clock period in ticks (Tick)
system.clk_domain.voltage_domain.voltage            1                       # Voltage in Volts (Volt)
system.cpu.numCycles                        476841170                       # Number of cpu cycles simulated (Cycle)
system.cpu.cpi                               2.319869                       # CPI: cycles per instruction (core level) ((Cycle/Count))
system.cpu.ipc                               0.431059                       # IPC: instructions per cycle (core level) ((Count/Cycle))
system.cpu.numWorkItemsStarted                      0                       # Number of work items this cpu started (Count)
system.cpu.numWorkItemsCompleted                    0                       # Number of work items this cpu completed (Count)
system.cpu.instsAdded                       491745522                       # Number of instructions added to the IQ (excludes non-spec) (Count)
system.cpu.nonSpecInstsAdded                  9981402                       # Number of non-speculative instructions added to the IQ (Count)
system.cpu.instsIssued                      412757293                       # Number of instructions issued (Count)
system.cpu.squashedInstsIssued                1295165                       # Number of squashed instructions issued (Count)
system.cpu.squashedInstsExamined            150218526                       # Number of squashed instructions iterated over during squash; mainly for profiling (Count)
system.cpu.squashedOperandsExamined         414754460                       # Number of squashed operands that are examined and possibly removed from graph (Count)
system.cpu.squashedNonSpecRemoved             5608362                       # Number of squashed non-spec instructions that were removed (Count)
system.cpu.numIssuedDist::samples           476816323                       # Number of insts issued each cycle (Count)
system.cpu.numIssuedDist::mean               0.865653                       # Number of insts issued each cycle (Count)
system.cpu.numIssuedDist::stdev              1.412131                       # Number of insts issued each cycle (Count)
system.cpu.numIssuedDist::underflows                0      0.00%      0.00% # Number of insts issued each cycle (Count)
system.cpu.numIssuedDist::0                 308887395     64.78%     64.78% # Number of insts issued each cycle (Count)
system.cpu.numIssuedDist::1                  43415670      9.11%     73.89% # Number of insts issued each cycle (Count)
system.cpu.numIssuedDist::2                  51311831     10.76%     84.65% # Number of insts issued each cycle (Count)
system.cpu.numIssuedDist::3                  45793860      9.60%     94.25% # Number of insts issued each cycle (Count)
system.cpu.numIssuedDist::4                  17699499      3.71%     97.96% # Number of insts issued each cycle (Count)
system.cpu.numIssuedDist::5                   4298620      0.90%     98.87% # Number of insts issued each cycle (Count)
system.cpu.numIssuedDist::6                   1957484      0.41%     99.28% # Number of insts issued each cycle (Count)
system.cpu.numIssuedDist::7                   2315331      0.49%     99.76% # Number of insts issued each cycle (Count)
system.cpu.numIssuedDist::8                   1136633      0.24%    100.00% # Number of insts issued each cycle (Count)
system.cpu.numIssuedDist::overflows                 0      0.00%    100.00% # Number of insts issued each cycle (Count)
system.cpu.numIssuedDist::min_value                 0                       # Number of insts issued each cycle (Count)
system.cpu.numIssuedDist::max_value                 8                       # Number of insts issued each cycle (Count)
system.cpu.numIssuedDist::total             476816323                       # Number of insts issued each cycle (Count)
system.cpu.statFuBusy::No_OpClass                   0      0.00%      0.00% # attempts to use FU when none available (Count)
system.cpu.statFuBusy::IntAlu                   30196      2.06%      2.06% # attempts to use FU when none available (Count)
system.cpu.statFuBusy::IntMult                      0      0.00%      2.06% # attempts to use FU when none available (Count)
system.cpu.statFuBusy::IntDiv                       0      0.00%      2.06% # attempts to use FU when none available (Count)
system.cpu.statFuBusy::FloatAdd                     0      0.00%      2.06% # attempts to use FU when none available (Count)
system.cpu.statFuBusy::FloatCmp                     0      0.00%      2.06% # attempts to use FU when none available (Count)
system.cpu.statFuBusy::FloatCvt                     0      0.00%      2.06% # attempts to use FU when none available (Count)
system.cpu.statFuBusy::FloatMult                    0      0.00%      2.06% # attempts to use FU when none available (Count)
system.cpu.statFuBusy::FloatMultAcc                 0      0.00%      2.06% # attempts to use FU when none available (Count)
system.cpu.statFuBusy::FloatDiv                     0      0.00%      2.06% # attempts to use FU when none available (Count)
system.cpu.statFuBusy::FloatMisc                    0      0.00%      2.06% # attempts to use FU when none available (Count)
system.cpu.statFuBusy::FloatSqrt                    0      0.00%      2.06% # attempts to use FU when none available (Count)
system.cpu.statFuBusy::SimdAdd                      0      0.00%      2.06% # attempts to use FU when none available (Count)
system.cpu.statFuBusy::SimdAddAcc                   0      0.00%      2.06% # attempts to use FU when none available (Count)
system.cpu.statFuBusy::SimdAlu                      9      0.00%      2.06% # attempts to use FU when none available (Count)
system.cpu.statFuBusy::SimdCmp                      0      0.00%      2.06% # attempts to use FU when none available (Count)
system.cpu.statFuBusy::SimdCvt                      4      0.00%      2.06% # attempts to use FU when none available (Count)
system.cpu.statFuBusy::SimdMisc                     1      0.00%      2.07% # attempts to use FU when none available (Count)
system.cpu.statFuBusy::SimdMult                     0      0.00%      2.07% # attempts to use FU when none available (Count)
system.cpu.statFuBusy::SimdMultAcc                  0      0.00%      2.07% # attempts to use FU when none available (Count)
system.cpu.statFuBusy::SimdMatMultAcc               0      0.00%      2.07% # attempts to use FU when none available (Count)
system.cpu.statFuBusy::SimdShift                    0      0.00%      2.07% # attempts to use FU when none available (Count)
system.cpu.statFuBusy::SimdShiftAcc                 0      0.00%      2.07% # attempts to use FU when none available (Count)
system.cpu.statFuBusy::SimdDiv                      0      0.00%      2.07% # attempts to use FU when none available (Count)
system.cpu.statFuBusy::SimdSqrt                     0      0.00%      2.07% # attempts to use FU when none available (Count)
system.cpu.statFuBusy::SimdFloatAdd                 0      0.00%      2.07% # attempts to use FU when none available (Count)
system.cpu.statFuBusy::SimdFloatAlu                 0      0.00%      2.07% # attempts to use FU when none available (Count)
system.cpu.statFuBusy::SimdFloatCmp                 0      0.00%      2.07% # attempts to use FU when none available (Count)
system.cpu.statFuBusy::SimdFloatCvt                 0      0.00%      2.07% # attempts to use FU when none available (Count)
system.cpu.statFuBusy::SimdFloatDiv                 0      0.00%      2.07% # attempts to use FU when none available (Count)
system.cpu.statFuBusy::SimdFloatMisc                0      0.00%      2.07% # attempts to use FU when none available (Count)
system.cpu.statFuBusy::SimdFloatMult                0      0.00%      2.07% # attempts to use FU when none available (Count)
system.cpu.statFuBusy::SimdFloatMultAcc             0      0.00%      2.07% # attempts to use FU when none available (Count)
system.cpu.statFuBusy::SimdFloatMatMultAcc            0      0.00%      2.07% # attempts to use FU when none available (Count)
system.cpu.statFuBusy::SimdFloatSqrt                0      0.00%      2.07% # attempts to use FU when none available (Count)
system.cpu.statFuBusy::SimdReduceAdd                0      0.00%      2.07% # attempts to use FU when none available (Count)
system.cpu.statFuBusy::SimdReduceAlu                0      0.00%      2.07% # attempts to use FU when none available (Count)
system.cpu.statFuBusy::SimdReduceCmp                0      0.00%      2.07% # attempts to use FU when none available (Count)
system.cpu.statFuBusy::SimdFloatReduceAdd            0      0.00%      2.07% # attempts to use FU when none available (Count)
system.cpu.statFuBusy::SimdFloatReduceCmp            0      0.00%      2.07% # attempts to use FU when none available (Count)
system.cpu.statFuBusy::SimdAes                      0      0.00%      2.07% # attempts to use FU when none available (Count)
system.cpu.statFuBusy::SimdAesMix                   0      0.00%      2.07% # attempts to use FU when none available (Count)
system.cpu.statFuBusy::SimdSha1Hash                 0      0.00%      2.07% # attempts to use FU when none available (Count)
system.cpu.statFuBusy::SimdSha1Hash2                0      0.00%      2.07% # attempts to use FU when none available (Count)
system.cpu.statFuBusy::SimdSha256Hash               0      0.00%      2.07% # attempts to use FU when none available (Count)
system.cpu.statFuBusy::SimdSha256Hash2              0      0.00%      2.07% # attempts to use FU when none available (Count)
system.cpu.statFuBusy::SimdShaSigma2                0      0.00%      2.07% # attempts to use FU when none available (Count)
system.cpu.statFuBusy::SimdShaSigma3                0      0.00%      2.07% # attempts to use FU when none available (Count)
system.cpu.statFuBusy::SimdPredAlu                  0      0.00%      2.07% # attempts to use FU when none available (Count)
system.cpu.statFuBusy::Matrix                       0      0.00%      2.07% # attempts to use FU when none available (Count)
system.cpu.statFuBusy::MatrixMov                    0      0.00%      2.07% # attempts to use FU when none available (Count)
system.cpu.statFuBusy::MatrixOP                     0      0.00%      2.07% # attempts to use FU when none available (Count)
system.cpu.statFuBusy::MemRead                1431879     97.88%     99.94% # attempts to use FU when none available (Count)
system.cpu.statFuBusy::MemWrite                   827      0.06%    100.00% # attempts to use FU when none available (Count)
system.cpu.statFuBusy::FloatMemRead                 2      0.00%    100.00% # attempts to use FU when none available (Count)
system.cpu.statFuBusy::FloatMemWrite                8      0.00%    100.00% # attempts to use FU when none available (Count)
system.cpu.statFuBusy::IprAccess                    0      0.00%    100.00% # attempts to use FU when none available (Count)
system.cpu.statFuBusy::InstPrefetch                 0      0.00%    100.00% # attempts to use FU when none available (Count)
system.cpu.statFuBusy::VectorUnitStrideLoad            0      0.00%    100.00% # attempts to use FU when none available (Count)
system.cpu.statFuBusy::VectorUnitStrideStore            0      0.00%    100.00% # attempts to use FU when none available (Count)
system.cpu.statFuBusy::VectorUnitStrideMaskLoad            0      0.00%    100.00% # attempts to use FU when none available (Count)
system.cpu.statFuBusy::VectorUnitStrideMaskStore            0      0.00%    100.00% # attempts to use FU when none available (Count)
system.cpu.statFuBusy::VectorStridedLoad            0      0.00%    100.00% # attempts to use FU when none available (Count)
system.cpu.statFuBusy::VectorStridedStore            0      0.00%    100.00% # attempts to use FU when none available (Count)
system.cpu.statFuBusy::VectorIndexedLoad            0      0.00%    100.00% # attempts to use FU when none available (Count)
system.cpu.statFuBusy::VectorIndexedStore            0      0.00%    100.00% # attempts to use FU when none available (Count)
system.cpu.statFuBusy::VectorUnitStrideFaultOnlyFirstLoad            0      0.00%    100.00% # attempts to use FU when none available (Count)
system.cpu.statFuBusy::VectorWholeRegisterLoad            0      0.00%    100.00% # attempts to use FU when none available (Count)
system.cpu.statFuBusy::VectorWholeRegisterStore            0      0.00%    100.00% # attempts to use FU when none available (Count)
system.cpu.statFuBusy::VectorIntegerArith            0      0.00%    100.00% # attempts to use FU when none available (Count)
system.cpu.statFuBusy::VectorFloatArith             0      0.00%    100.00% # attempts to use FU when none available (Count)
system.cpu.statFuBusy::VectorFloatConvert            0      0.00%    100.00% # attempts to use FU when none available (Count)
system.cpu.statFuBusy::VectorIntegerReduce            0      0.00%    100.00% # attempts to use FU when none available (Count)
system.cpu.statFuBusy::VectorFloatReduce            0      0.00%    100.00% # attempts to use FU when none available (Count)
system.cpu.statFuBusy::VectorMisc                   0      0.00%    100.00% # attempts to use FU when none available (Count)
system.cpu.statFuBusy::VectorIntegerExtension            0      0.00%    100.00% # attempts to use FU when none available (Count)
system.cpu.statFuBusy::VectorConfig                 0      0.00%    100.00% # attempts to use FU when none available (Count)
system.cpu.statIssuedInstType_0::No_OpClass          927      0.00%      0.00% # Number of instructions issued per FU type, per thread (Count)
system.cpu.statIssuedInstType_0::IntAlu     295902158     71.69%     71.69% # Number of instructions issued per FU type, per thread (Count)
system.cpu.statIssuedInstType_0::IntMult      1570820      0.38%     72.07% # Number of instructions issued per FU type, per thread (Count)
system.cpu.statIssuedInstType_0::IntDiv         78286      0.02%     72.09% # Number of instructions issued per FU type, per thread (Count)
system.cpu.statIssuedInstType_0::FloatAdd          328      0.00%     72.09% # Number of instructions issued per FU type, per thread (Count)
system.cpu.statIssuedInstType_0::FloatCmp            0      0.00%     72.09% # Number of instructions issued per FU type, per thread (Count)
system.cpu.statIssuedInstType_0::FloatCvt            0      0.00%     72.09% # Number of instructions issued per FU type, per thread (Count)
system.cpu.statIssuedInstType_0::FloatMult            0      0.00%     72.09% # Number of instructions issued per FU type, per thread (Count)
system.cpu.statIssuedInstType_0::FloatMultAcc            0      0.00%     72.09% # Number of instructions issued per FU type, per thread (Count)
system.cpu.statIssuedInstType_0::FloatDiv            0      0.00%     72.09% # Number of instructions issued per FU type, per thread (Count)
system.cpu.statIssuedInstType_0::FloatMisc            0      0.00%     72.09% # Number of instructions issued per FU type, per thread (Count)
system.cpu.statIssuedInstType_0::FloatSqrt            0      0.00%     72.09% # Number of instructions issued per FU type, per thread (Count)
system.cpu.statIssuedInstType_0::SimdAdd            0      0.00%     72.09% # Number of instructions issued per FU type, per thread (Count)
system.cpu.statIssuedInstType_0::SimdAddAcc            0      0.00%     72.09% # Number of instructions issued per FU type, per thread (Count)
system.cpu.statIssuedInstType_0::SimdAlu         1610      0.00%     72.09% # Number of instructions issued per FU type, per thread (Count)
system.cpu.statIssuedInstType_0::SimdCmp            0      0.00%     72.09% # Number of instructions issued per FU type, per thread (Count)
system.cpu.statIssuedInstType_0::SimdCvt         1818      0.00%     72.09% # Number of instructions issued per FU type, per thread (Count)
system.cpu.statIssuedInstType_0::SimdMisc         3232      0.00%     72.09% # Number of instructions issued per FU type, per thread (Count)
system.cpu.statIssuedInstType_0::SimdMult            0      0.00%     72.09% # Number of instructions issued per FU type, per thread (Count)
system.cpu.statIssuedInstType_0::SimdMultAcc            0      0.00%     72.09% # Number of instructions issued per FU type, per thread (Count)
system.cpu.statIssuedInstType_0::SimdMatMultAcc            0      0.00%     72.09% # Number of instructions issued per FU type, per thread (Count)
system.cpu.statIssuedInstType_0::SimdShift            0      0.00%     72.09% # Number of instructions issued per FU type, per thread (Count)
system.cpu.statIssuedInstType_0::SimdShiftAcc            0      0.00%     72.09% # Number of instructions issued per FU type, per thread (Count)
system.cpu.statIssuedInstType_0::SimdDiv            0      0.00%     72.09% # Number of instructions issued per FU type, per thread (Count)
system.cpu.statIssuedInstType_0::SimdSqrt            0      0.00%     72.09% # Number of instructions issued per FU type, per thread (Count)
system.cpu.statIssuedInstType_0::SimdFloatAdd            0      0.00%     72.09% # Number of instructions issued per FU type, per thread (Count)
system.cpu.statIssuedInstType_0::SimdFloatAlu            0      0.00%     72.09% # Number of instructions issued per FU type, per thread (Count)
system.cpu.statIssuedInstType_0::SimdFloatCmp            0      0.00%     72.09% # Number of instructions issued per FU type, per thread (Count)
system.cpu.statIssuedInstType_0::SimdFloatCvt            0      0.00%     72.09% # Number of instructions issued per FU type, per thread (Count)
system.cpu.statIssuedInstType_0::SimdFloatDiv            0      0.00%     72.09% # Number of instructions issued per FU type, per thread (Count)
system.cpu.statIssuedInstType_0::SimdFloatMisc            0      0.00%     72.09% # Number of instructions issued per FU type, per thread (Count)
system.cpu.statIssuedInstType_0::SimdFloatMult            0      0.00%     72.09% # Number of instructions issued per FU type, per thread (Count)
system.cpu.statIssuedInstType_0::SimdFloatMultAcc            0      0.00%     72.09% # Number of instructions issued per FU type, per thread (Count)
system.cpu.statIssuedInstType_0::SimdFloatMatMultAcc            0      0.00%     72.09% # Number of instructions issued per FU type, per thread (Count)
system.cpu.statIssuedInstType_0::SimdFloatSqrt            0      0.00%     72.09% # Number of instructions issued per FU type, per thread (Count)
system.cpu.statIssuedInstType_0::SimdReduceAdd            0      0.00%     72.09% # Number of instructions issued per FU type, per thread (Count)
system.cpu.statIssuedInstType_0::SimdReduceAlu            0      0.00%     72.09% # Number of instructions issued per FU type, per thread (Count)
system.cpu.statIssuedInstType_0::SimdReduceCmp            0      0.00%     72.09% # Number of instructions issued per FU type, per thread (Count)
system.cpu.statIssuedInstType_0::SimdFloatReduceAdd            0      0.00%     72.09% # Number of instructions issued per FU type, per thread (Count)
system.cpu.statIssuedInstType_0::SimdFloatReduceCmp            0      0.00%     72.09% # Number of instructions issued per FU type, per thread (Count)
system.cpu.statIssuedInstType_0::SimdAes            0      0.00%     72.09% # Number of instructions issued per FU type, per thread (Count)
system.cpu.statIssuedInstType_0::SimdAesMix            0      0.00%     72.09% # Number of instructions issued per FU type, per thread (Count)
system.cpu.statIssuedInstType_0::SimdSha1Hash            0      0.00%     72.09% # Number of instructions issued per FU type, per thread (Count)
system.cpu.statIssuedInstType_0::SimdSha1Hash2            0      0.00%     72.09% # Number of instructions issued per FU type, per thread (Count)
system.cpu.statIssuedInstType_0::SimdSha256Hash            0      0.00%     72.09% # Number of instructions issued per FU type, per thread (Count)
system.cpu.statIssuedInstType_0::SimdSha256Hash2            0      0.00%     72.09% # Number of instructions issued per FU type, per thread (Count)
system.cpu.statIssuedInstType_0::SimdShaSigma2            0      0.00%     72.09% # Number of instructions issued per FU type, per thread (Count)
system.cpu.statIssuedInstType_0::SimdShaSigma3            0      0.00%     72.09% # Number of instructions issued per FU type, per thread (Count)
system.cpu.statIssuedInstType_0::SimdPredAlu            0      0.00%     72.09% # Number of instructions issued per FU type, per thread (Count)
system.cpu.statIssuedInstType_0::Matrix             0      0.00%     72.09% # Number of instructions issued per FU type, per thread (Count)
system.cpu.statIssuedInstType_0::MatrixMov            0      0.00%     72.09% # Number of instructions issued per FU type, per thread (Count)
system.cpu.statIssuedInstType_0::MatrixOP            0      0.00%     72.09% # Number of instructions issued per FU type, per thread (Count)
system.cpu.statIssuedInstType_0::MemRead     75229772     18.23%     90.32% # Number of instructions issued per FU type, per thread (Count)
system.cpu.statIssuedInstType_0::MemWrite     39967226      9.68%    100.00% # Number of instructions issued per FU type, per thread (Count)
system.cpu.statIssuedInstType_0::FloatMemRead          936      0.00%    100.00% # Number of instructions issued per FU type, per thread (Count)
system.cpu.statIssuedInstType_0::FloatMemWrite          180      0.00%    100.00% # Number of instructions issued per FU type, per thread (Count)
system.cpu.statIssuedInstType_0::IprAccess            0      0.00%    100.00% # Number of instructions issued per FU type, per thread (Count)
system.cpu.statIssuedInstType_0::InstPrefetch            0      0.00%    100.00% # Number of instructions issued per FU type, per thread (Count)
system.cpu.statIssuedInstType_0::VectorUnitStrideLoad            0      0.00%    100.00% # Number of instructions issued per FU type, per thread (Count)
system.cpu.statIssuedInstType_0::VectorUnitStrideStore            0      0.00%    100.00% # Number of instructions issued per FU type, per thread (Count)
system.cpu.statIssuedInstType_0::VectorUnitStrideMaskLoad            0      0.00%    100.00% # Number of instructions issued per FU type, per thread (Count)
system.cpu.statIssuedInstType_0::VectorUnitStrideMaskStore            0      0.00%    100.00% # Number of instructions issued per FU type, per thread (Count)
system.cpu.statIssuedInstType_0::VectorStridedLoad            0      0.00%    100.00% # Number of instructions issued per FU type, per thread (Count)
system.cpu.statIssuedInstType_0::VectorStridedStore            0      0.00%    100.00% # Number of instructions issued per FU type, per thread (Count)
system.cpu.statIssuedInstType_0::VectorIndexedLoad            0      0.00%    100.00% # Number of instructions issued per FU type, per thread (Count)
system.cpu.statIssuedInstType_0::VectorIndexedStore            0      0.00%    100.00% # Number of instructions issued per FU type, per thread (Count)
system.cpu.statIssuedInstType_0::VectorUnitStrideFaultOnlyFirstLoad            0      0.00%    100.00% # Number of instructions issued per FU type, per thread (Count)
system.cpu.statIssuedInstType_0::VectorWholeRegisterLoad            0      0.00%    100.00% # Number of instructions issued per FU type, per thread (Count)
system.cpu.statIssuedInstType_0::VectorWholeRegisterStore            0      0.00%    100.00% # Number of instructions issued per FU type, per thread (Count)
system.cpu.statIssuedInstType_0::VectorIntegerArith            0      0.00%    100.00% # Number of instructions issued per FU type, per thread (Count)
system.cpu.statIssuedInstType_0::VectorFloatArith            0      0.00%    100.00% # Number of instructions issued per FU type, per thread (Count)
system.cpu.statIssuedInstType_0::VectorFloatConvert            0      0.00%    100.00% # Number of instructions issued per FU type, per thread (Count)
system.cpu.statIssuedInstType_0::VectorIntegerReduce            0      0.00%    100.00% # Number of instructions issued per FU type, per thread (Count)
system.cpu.statIssuedInstType_0::VectorFloatReduce            0      0.00%    100.00% # Number of instructions issued per FU type, per thread (Count)
system.cpu.statIssuedInstType_0::VectorMisc            0      0.00%    100.00% # Number of instructions issued per FU type, per thread (Count)
system.cpu.statIssuedInstType_0::VectorIntegerExtension            0      0.00%    100.00% # Number of instructions issued per FU type, per thread (Count)
system.cpu.statIssuedInstType_0::VectorConfig            0      0.00%    100.00% # Number of instructions issued per FU type, per thread (Count)
system.cpu.statIssuedInstType_0::total      412757293                       # Number of instructions issued per FU type, per thread (Count)
system.cpu.issueRate                         0.865607                       # Inst issue rate ((Count/Cycle))
system.cpu.fuBusy                             1462926                       # FU busy when requested (Count)
system.cpu.fuBusyRate                        0.003544                       # FU busy rate (busy events/executed inst) ((Count/Count))
system.cpu.intInstQueueReads               1305070472                       # Number of integer instruction queue reads (Count)
system.cpu.intInstQueueWrites               653679722                       # Number of integer instruction queue writes (Count)
system.cpu.intInstQueueWakeupAccesses       410615970                       # Number of integer instruction queue wakeup accesses (Count)
system.cpu.fpInstQueueReads                     18522                       # Number of floating instruction queue reads (Count)
system.cpu.fpInstQueueWrites                     9354                       # Number of floating instruction queue writes (Count)
system.cpu.fpInstQueueWakeupAccesses             9220                       # Number of floating instruction queue wakeup accesses (Count)
system.cpu.vecInstQueueReads                        0                       # Number of vector instruction queue reads (Count)
system.cpu.vecInstQueueWrites                       0                       # Number of vector instruction queue writes (Count)
system.cpu.vecInstQueueWakeupAccesses               0                       # Number of vector instruction queue wakeup accesses (Count)
system.cpu.intAluAccesses                   414210024                       # Number of integer alu accesses (Count)
system.cpu.fpAluAccesses                         9268                       # Number of floating point alu accesses (Count)
system.cpu.vecAluAccesses                           0                       # Number of vector alu accesses (Count)
system.cpu.numSquashedInsts                   1120806                       # Number of squashed instructions skipped in execute (Count)
system.cpu.numSwp                                   0                       # Number of swp insts executed (Count)
system.cpu.timesIdled                             660                       # Number of times that the entire CPU went into an idle state and unscheduled itself (Count)
system.cpu.idleCycles                           24847                       # Total number of cycles that the CPU has spent unscheduled due to idling (Cycle)
system.cpu.MemDepUnit__0.insertedLoads      100212059                       # Number of loads inserted to the mem dependence unit. (Count)
system.cpu.MemDepUnit__0.insertedStores      57754858                       # Number of stores inserted to the mem dependence unit. (Count)
system.cpu.MemDepUnit__0.conflictingLoads     89591402                       # Number of conflicting loads. (Count)
system.cpu.MemDepUnit__0.conflictingStores     46780650                       # Number of conflicting stores. (Count)
system.cpu.MemDepUnit__1.insertedLoads              0                       # Number of loads inserted to the mem dependence unit. (Count)
system.cpu.MemDepUnit__1.insertedStores             0                       # Number of stores inserted to the mem dependence unit. (Count)
system.cpu.MemDepUnit__1.conflictingLoads            0                       # Number of conflicting loads. (Count)
system.cpu.MemDepUnit__1.conflictingStores            0                       # Number of conflicting stores. (Count)
system.cpu.MemDepUnit__2.insertedLoads              0                       # Number of loads inserted to the mem dependence unit. (Count)
system.cpu.MemDepUnit__2.insertedStores             0                       # Number of stores inserted to the mem dependence unit. (Count)
system.cpu.MemDepUnit__2.conflictingLoads            0                       # Number of conflicting loads. (Count)
system.cpu.MemDepUnit__2.conflictingStores            0                       # Number of conflicting stores. (Count)
system.cpu.MemDepUnit__3.insertedLoads              0                       # Number of loads inserted to the mem dependence unit. (Count)
system.cpu.MemDepUnit__3.insertedStores             0                       # Number of stores inserted to the mem dependence unit. (Count)
system.cpu.MemDepUnit__3.conflictingLoads            0                       # Number of conflicting loads. (Count)
system.cpu.MemDepUnit__3.conflictingStores            0                       # Number of conflicting stores. (Count)
system.cpu.branchPred.lookups                42971827                       # Number of BP lookups (Count)
system.cpu.branchPred.condPredicted          41269028                       # Number of conditional branches predicted (Count)
system.cpu.branchPred.condIncorrect            525521                       # Number of conditional branches incorrect (Count)
system.cpu.branchPred.BTBLookups             39091719                       # Number of BTB lookups (Count)
system.cpu.branchPred.BTBUpdates               348634                       # Number of BTB updates (Count)
system.cpu.branchPred.BTBHits                39091164                       # Number of BTB hits (Count)
system.cpu.branchPred.BTBHitRatio            0.999986                       # BTB Hit Ratio (Ratio)
system.cpu.branchPred.RASUsed                  172788                       # Number of times the RAS was used to get a target. (Count)
system.cpu.branchPred.RASIncorrect                  2                       # Number of incorrect RAS predictions. (Count)
system.cpu.branchPred.indirectLookups            1363                       # Number of indirect predictor lookups. (Count)
system.cpu.branchPred.indirectHits               1072                       # Number of indirect target hits. (Count)
system.cpu.branchPred.indirectMisses              291                       # Number of indirect misses. (Count)
system.cpu.branchPred.indirectMispredicted          252                       # Number of mispredicted indirect branches. (Count)
system.cpu.branchPred.loop_predictor.correct     24664466                       # Number of times the loop predictor is the provider and the prediction is correct (Count)
system.cpu.branchPred.loop_predictor.wrong      1907982                       # Number of times the loop predictor is the provider and the prediction is wrong (Count)
system.cpu.branchPred.statistical_corrector.correct     26387622                       # Number of time the SC predictor is the provider and the prediction is correct (Count)
system.cpu.branchPred.statistical_corrector.wrong       184826                       # Number of time the SC predictor is the provider and the prediction is wrong (Count)
system.cpu.branchPred.tage.longestMatchProviderCorrect     20811055                       # Number of times TAGE Longest Match is the provider and the prediction is correct (Count)
system.cpu.branchPred.tage.altMatchProviderCorrect       117619                       # Number of times TAGE Alt Match is the provider and the prediction is correct (Count)
system.cpu.branchPred.tage.bimodalAltMatchProviderCorrect          158                       # Number of times TAGE Alt Match is the bimodal and it is the provider and the prediction is correct (Count)
system.cpu.branchPred.tage.bimodalProviderCorrect      5463088                       # Number of times there are no hits on the TAGE tables and the bimodal prediction is correct (Count)
system.cpu.branchPred.tage.longestMatchProviderWrong        64377                       # Number of times TAGE Longest Match is the provider and the prediction is wrong (Count)
system.cpu.branchPred.tage.altMatchProviderWrong       115592                       # Number of times TAGE Alt Match is the provider and the prediction is wrong (Count)
system.cpu.branchPred.tage.bimodalAltMatchProviderWrong           40                       # Number of times TAGE Alt Match is the bimodal and it is the provider and the prediction is wrong (Count)
system.cpu.branchPred.tage.bimodalProviderWrong          519                       # Number of times there are no hits on the TAGE tables and the bimodal prediction is wrong (Count)
system.cpu.branchPred.tage.altMatchProviderWouldHaveHit         1611                       # Number of times TAGE Longest Match is the provider, the prediction is wrong and Alt Match prediction was correct (Count)
system.cpu.branchPred.tage.longestMatchProviderWouldHaveHit       110306                       # Number of times TAGE Alt Match is the provider, the prediction is wrong and Longest Match prediction was correct (Count)
system.cpu.branchPred.tage.longestMatchProvider::0            0                       # TAGE provider for longest match (Count)
system.cpu.branchPred.tage.longestMatchProvider::1      2707257                       # TAGE provider for longest match (Count)
system.cpu.branchPred.tage.longestMatchProvider::2        59521                       # TAGE provider for longest match (Count)
system.cpu.branchPred.tage.longestMatchProvider::3       938595                       # TAGE provider for longest match (Count)
system.cpu.branchPred.tage.longestMatchProvider::4      3898500                       # TAGE provider for longest match (Count)
system.cpu.branchPred.tage.longestMatchProvider::5       258672                       # TAGE provider for longest match (Count)
system.cpu.branchPred.tage.longestMatchProvider::6      3864692                       # TAGE provider for longest match (Count)
system.cpu.branchPred.tage.longestMatchProvider::7      4426296                       # TAGE provider for longest match (Count)
system.cpu.branchPred.tage.longestMatchProvider::8       509035                       # TAGE provider for longest match (Count)
system.cpu.branchPred.tage.longestMatchProvider::9       803807                       # TAGE provider for longest match (Count)
system.cpu.branchPred.tage.longestMatchProvider::10      1286694                       # TAGE provider for longest match (Count)
system.cpu.branchPred.tage.longestMatchProvider::11       764546                       # TAGE provider for longest match (Count)
system.cpu.branchPred.tage.longestMatchProvider::12       423934                       # TAGE provider for longest match (Count)
system.cpu.branchPred.tage.longestMatchProvider::13       526410                       # TAGE provider for longest match (Count)
system.cpu.branchPred.tage.longestMatchProvider::14       253467                       # TAGE provider for longest match (Count)
system.cpu.branchPred.tage.longestMatchProvider::15       387217                       # TAGE provider for longest match (Count)
system.cpu.branchPred.tage.altMatchProvider::0      2809481                       # TAGE provider for alt match (Count)
system.cpu.branchPred.tage.altMatchProvider::1       902630                       # TAGE provider for alt match (Count)
system.cpu.branchPred.tage.altMatchProvider::2       138414                       # TAGE provider for alt match (Count)
system.cpu.branchPred.tage.altMatchProvider::3      3773200                       # TAGE provider for alt match (Count)
system.cpu.branchPred.tage.altMatchProvider::4      4057457                       # TAGE provider for alt match (Count)
system.cpu.branchPred.tage.altMatchProvider::5       832585                       # TAGE provider for alt match (Count)
system.cpu.branchPred.tage.altMatchProvider::6      3860044                       # TAGE provider for alt match (Count)
system.cpu.branchPred.tage.altMatchProvider::7       799724                       # TAGE provider for alt match (Count)
system.cpu.branchPred.tage.altMatchProvider::8       836229                       # TAGE provider for alt match (Count)
system.cpu.branchPred.tage.altMatchProvider::9       919217                       # TAGE provider for alt match (Count)
system.cpu.branchPred.tage.altMatchProvider::10       824610                       # TAGE provider for alt match (Count)
system.cpu.branchPred.tage.altMatchProvider::11       418767                       # TAGE provider for alt match (Count)
system.cpu.branchPred.tage.altMatchProvider::12       556923                       # TAGE provider for alt match (Count)
system.cpu.branchPred.tage.altMatchProvider::13       160171                       # TAGE provider for alt match (Count)
system.cpu.branchPred.tage.altMatchProvider::14       219191                       # TAGE provider for alt match (Count)
system.cpu.branchPred.tage.altMatchProvider::15            0                       # TAGE provider for alt match (Count)
system.cpu.commit.commitSquashedInsts       150216000                       # The number of squashed insts skipped by commit (Count)
system.cpu.commit.commitNonSpecStalls         4373040                       # The number of times commit has been forced to stall to communicate backwards (Count)
system.cpu.commit.branchMispredicts            181114                       # The number of times a branch was mispredicted (Count)
system.cpu.commit.numCommittedDist::samples    456999673                       # Number of insts commited each cycle (Count)
system.cpu.commit.numCommittedDist::mean     0.769165                       # Number of insts commited each cycle (Count)
system.cpu.commit.numCommittedDist::stdev     1.576405                       # Number of insts commited each cycle (Count)
system.cpu.commit.numCommittedDist::underflows            0      0.00%      0.00% # Number of insts commited each cycle (Count)
system.cpu.commit.numCommittedDist::0       329362775     72.07%     72.07% # Number of insts commited each cycle (Count)
system.cpu.commit.numCommittedDist::1        39479373      8.64%     80.71% # Number of insts commited each cycle (Count)
system.cpu.commit.numCommittedDist::2        30965314      6.78%     87.49% # Number of insts commited each cycle (Count)
system.cpu.commit.numCommittedDist::3        28450714      6.23%     93.71% # Number of insts commited each cycle (Count)
system.cpu.commit.numCommittedDist::4          363862      0.08%     93.79% # Number of insts commited each cycle (Count)
system.cpu.commit.numCommittedDist::5        18961091      4.15%     97.94% # Number of insts commited each cycle (Count)
system.cpu.commit.numCommittedDist::6         3419148      0.75%     98.69% # Number of insts commited each cycle (Count)
system.cpu.commit.numCommittedDist::7            8786      0.00%     98.69% # Number of insts commited each cycle (Count)
system.cpu.commit.numCommittedDist::8         5988610      1.31%    100.00% # Number of insts commited each cycle (Count)
system.cpu.commit.numCommittedDist::overflows            0      0.00%    100.00% # Number of insts commited each cycle (Count)
system.cpu.commit.numCommittedDist::min_value            0                       # Number of insts commited each cycle (Count)
system.cpu.commit.numCommittedDist::max_value            8                       # Number of insts commited each cycle (Count)
system.cpu.commit.numCommittedDist::total    456999673                       # Number of insts commited each cycle (Count)
system.cpu.commit.amos                              0                       # Number of atomic instructions committed (Count)
system.cpu.commit.membars                     4373040                       # Number of memory barriers committed (Count)
system.cpu.commit.functionCalls                166530                       # Number of function calls committed. (Count)
system.cpu.commit.committedInstType_0::No_OpClass          629      0.00%      0.00% # Class of committed instruction (Count)
system.cpu.commit.committedInstType_0::IntAlu    244078416     69.44%     69.44% # Class of committed instruction (Count)
system.cpu.commit.committedInstType_0::IntMult      1567327      0.45%     69.88% # Class of committed instruction (Count)
system.cpu.commit.committedInstType_0::IntDiv        77315      0.02%     69.91% # Class of committed instruction (Count)
system.cpu.commit.committedInstType_0::FloatAdd          328      0.00%     69.91% # Class of committed instruction (Count)
system.cpu.commit.committedInstType_0::FloatCmp            0      0.00%     69.91% # Class of committed instruction (Count)
system.cpu.commit.committedInstType_0::FloatCvt            0      0.00%     69.91% # Class of committed instruction (Count)
system.cpu.commit.committedInstType_0::FloatMult            0      0.00%     69.91% # Class of committed instruction (Count)
system.cpu.commit.committedInstType_0::FloatMultAcc            0      0.00%     69.91% # Class of committed instruction (Count)
system.cpu.commit.committedInstType_0::FloatDiv            0      0.00%     69.91% # Class of committed instruction (Count)
system.cpu.commit.committedInstType_0::FloatMisc            0      0.00%     69.91% # Class of committed instruction (Count)
system.cpu.commit.committedInstType_0::FloatSqrt            0      0.00%     69.91% # Class of committed instruction (Count)
system.cpu.commit.committedInstType_0::SimdAdd            0      0.00%     69.91% # Class of committed instruction (Count)
system.cpu.commit.committedInstType_0::SimdAddAcc            0      0.00%     69.91% # Class of committed instruction (Count)
system.cpu.commit.committedInstType_0::SimdAlu         1602      0.00%     69.91% # Class of committed instruction (Count)
system.cpu.commit.committedInstType_0::SimdCmp            0      0.00%     69.91% # Class of committed instruction (Count)
system.cpu.commit.committedInstType_0::SimdCvt         1814      0.00%     69.91% # Class of committed instruction (Count)
system.cpu.commit.committedInstType_0::SimdMisc         3230      0.00%     69.91% # Class of committed instruction (Count)
system.cpu.commit.committedInstType_0::SimdMult            0      0.00%     69.91% # Class of committed instruction (Count)
system.cpu.commit.committedInstType_0::SimdMultAcc            0      0.00%     69.91% # Class of committed instruction (Count)
system.cpu.commit.committedInstType_0::SimdMatMultAcc            0      0.00%     69.91% # Class of committed instruction (Count)
system.cpu.commit.committedInstType_0::SimdShift            0      0.00%     69.91% # Class of committed instruction (Count)
system.cpu.commit.committedInstType_0::SimdShiftAcc            0      0.00%     69.91% # Class of committed instruction (Count)
system.cpu.commit.committedInstType_0::SimdDiv            0      0.00%     69.91% # Class of committed instruction (Count)
system.cpu.commit.committedInstType_0::SimdSqrt            0      0.00%     69.91% # Class of committed instruction (Count)
system.cpu.commit.committedInstType_0::SimdFloatAdd            0      0.00%     69.91% # Class of committed instruction (Count)
system.cpu.commit.committedInstType_0::SimdFloatAlu            0      0.00%     69.91% # Class of committed instruction (Count)
system.cpu.commit.committedInstType_0::SimdFloatCmp            0      0.00%     69.91% # Class of committed instruction (Count)
system.cpu.commit.committedInstType_0::SimdFloatCvt            0      0.00%     69.91% # Class of committed instruction (Count)
system.cpu.commit.committedInstType_0::SimdFloatDiv            0      0.00%     69.91% # Class of committed instruction (Count)
system.cpu.commit.committedInstType_0::SimdFloatMisc            0      0.00%     69.91% # Class of committed instruction (Count)
system.cpu.commit.committedInstType_0::SimdFloatMult            0      0.00%     69.91% # Class of committed instruction (Count)
system.cpu.commit.committedInstType_0::SimdFloatMultAcc            0      0.00%     69.91% # Class of committed instruction (Count)
system.cpu.commit.committedInstType_0::SimdFloatMatMultAcc            0      0.00%     69.91% # Class of committed instruction (Count)
system.cpu.commit.committedInstType_0::SimdFloatSqrt            0      0.00%     69.91% # Class of committed instruction (Count)
system.cpu.commit.committedInstType_0::SimdReduceAdd            0      0.00%     69.91% # Class of committed instruction (Count)
system.cpu.commit.committedInstType_0::SimdReduceAlu            0      0.00%     69.91% # Class of committed instruction (Count)
system.cpu.commit.committedInstType_0::SimdReduceCmp            0      0.00%     69.91% # Class of committed instruction (Count)
system.cpu.commit.committedInstType_0::SimdFloatReduceAdd            0      0.00%     69.91% # Class of committed instruction (Count)
system.cpu.commit.committedInstType_0::SimdFloatReduceCmp            0      0.00%     69.91% # Class of committed instruction (Count)
system.cpu.commit.committedInstType_0::SimdAes            0      0.00%     69.91% # Class of committed instruction (Count)
system.cpu.commit.committedInstType_0::SimdAesMix            0      0.00%     69.91% # Class of committed instruction (Count)
system.cpu.commit.committedInstType_0::SimdSha1Hash            0      0.00%     69.91% # Class of committed instruction (Count)
system.cpu.commit.committedInstType_0::SimdSha1Hash2            0      0.00%     69.91% # Class of committed instruction (Count)
system.cpu.commit.committedInstType_0::SimdSha256Hash            0      0.00%     69.91% # Class of committed instruction (Count)
system.cpu.commit.committedInstType_0::SimdSha256Hash2            0      0.00%     69.91% # Class of committed instruction (Count)
system.cpu.commit.committedInstType_0::SimdShaSigma2            0      0.00%     69.91% # Class of committed instruction (Count)
system.cpu.commit.committedInstType_0::SimdShaSigma3            0      0.00%     69.91% # Class of committed instruction (Count)
system.cpu.commit.committedInstType_0::SimdPredAlu            0      0.00%     69.91% # Class of committed instruction (Count)
system.cpu.commit.committedInstType_0::Matrix            0      0.00%     69.91% # Class of committed instruction (Count)
system.cpu.commit.committedInstType_0::MatrixMov            0      0.00%     69.91% # Class of committed instruction (Count)
system.cpu.commit.committedInstType_0::MatrixOP            0      0.00%     69.91% # Class of committed instruction (Count)
system.cpu.commit.committedInstType_0::MemRead     68069707     19.37%     89.27% # Class of committed instruction (Count)
system.cpu.commit.committedInstType_0::MemWrite     37706866     10.73%    100.00% # Class of committed instruction (Count)
system.cpu.commit.committedInstType_0::FloatMemRead          922      0.00%    100.00% # Class of committed instruction (Count)
system.cpu.commit.committedInstType_0::FloatMemWrite          160      0.00%    100.00% # Class of committed instruction (Count)
system.cpu.commit.committedInstType_0::IprAccess            0      0.00%    100.00% # Class of committed instruction (Count)
system.cpu.commit.committedInstType_0::InstPrefetch            0      0.00%    100.00% # Class of committed instruction (Count)
system.cpu.commit.committedInstType_0::VectorUnitStrideLoad            0      0.00%    100.00% # Class of committed instruction (Count)
system.cpu.commit.committedInstType_0::VectorUnitStrideStore            0      0.00%    100.00% # Class of committed instruction (Count)
system.cpu.commit.committedInstType_0::VectorUnitStrideMaskLoad            0      0.00%    100.00% # Class of committed instruction (Count)
system.cpu.commit.committedInstType_0::VectorUnitStrideMaskStore            0      0.00%    100.00% # Class of committed instruction (Count)
system.cpu.commit.committedInstType_0::VectorStridedLoad            0      0.00%    100.00% # Class of committed instruction (Count)
system.cpu.commit.committedInstType_0::VectorStridedStore            0      0.00%    100.00% # Class of committed instruction (Count)
system.cpu.commit.committedInstType_0::VectorIndexedLoad            0      0.00%    100.00% # Class of committed instruction (Count)
system.cpu.commit.committedInstType_0::VectorIndexedStore            0      0.00%    100.00% # Class of committed instruction (Count)
system.cpu.commit.committedInstType_0::VectorUnitStrideFaultOnlyFirstLoad            0      0.00%    100.00% # Class of committed instruction (Count)
system.cpu.commit.committedInstType_0::VectorWholeRegisterLoad            0      0.00%    100.00% # Class of committed instruction (Count)
system.cpu.commit.committedInstType_0::VectorWholeRegisterStore            0      0.00%    100.00% # Class of committed instruction (Count)
system.cpu.commit.committedInstType_0::VectorIntegerArith            0      0.00%    100.00% # Class of committed instruction (Count)
system.cpu.commit.committedInstType_0::VectorFloatArith            0      0.00%    100.00% # Class of committed instruction (Count)
system.cpu.commit.committedInstType_0::VectorFloatConvert            0      0.00%    100.00% # Class of committed instruction (Count)
system.cpu.commit.committedInstType_0::VectorIntegerReduce            0      0.00%    100.00% # Class of committed instruction (Count)
system.cpu.commit.committedInstType_0::VectorFloatReduce            0      0.00%    100.00% # Class of committed instruction (Count)
system.cpu.commit.committedInstType_0::VectorMisc            0      0.00%    100.00% # Class of committed instruction (Count)
system.cpu.commit.committedInstType_0::VectorIntegerExtension            0      0.00%    100.00% # Class of committed instruction (Count)
system.cpu.commit.committedInstType_0::VectorConfig            0      0.00%    100.00% # Class of committed instruction (Count)
system.cpu.commit.committedInstType_0::total    351508316                       # Class of committed instruction (Count)
system.cpu.commit.commitEligibleSamples       5988610                       # number cycles where commit BW limit reached (Cycle)
system.cpu.commitStats0.numInsts            205546565                       # Number of instructions committed (thread level) (Count)
system.cpu.commitStats0.numOps              351508316                       # Number of ops (including micro ops) committed (thread level) (Count)
system.cpu.commitStats0.numInstsNotNOP      205546565                       # Number of instructions committed excluding NOPs or prefetches (Count)
system.cpu.commitStats0.numOpsNotNOP        351508316                       # Number of Ops (including micro ops) Simulated (Count)
system.cpu.commitStats0.cpi                  2.319869                       # CPI: cycles per instruction (thread level) ((Cycle/Count))
system.cpu.commitStats0.ipc                  0.431059                       # IPC: instructions per cycle (thread level) ((Count/Cycle))
system.cpu.commitStats0.numMemRefs          105777655                       # Number of memory references committed (Count)
system.cpu.commitStats0.numFpInsts               9194                       # Number of float instructions (Count)
system.cpu.commitStats0.numIntInsts         347116057                       # Number of integer instructions (Count)
system.cpu.commitStats0.numLoadInsts         68070629                       # Number of load instructions (Count)
system.cpu.commitStats0.numStoreInsts        37707026                       # Number of store instructions (Count)
system.cpu.commitStats0.numVecInsts                 0                       # Number of vector instructions (Count)
system.cpu.commitStats0.committedInstType::No_OpClass          629      0.00%      0.00% # Class of committed instruction. (Count)
system.cpu.commitStats0.committedInstType::IntAlu    244078416     69.44%     69.44% # Class of committed instruction. (Count)
system.cpu.commitStats0.committedInstType::IntMult      1567327      0.45%     69.88% # Class of committed instruction. (Count)
system.cpu.commitStats0.committedInstType::IntDiv        77315      0.02%     69.91% # Class of committed instruction. (Count)
system.cpu.commitStats0.committedInstType::FloatAdd          328      0.00%     69.91% # Class of committed instruction. (Count)
system.cpu.commitStats0.committedInstType::FloatCmp            0      0.00%     69.91% # Class of committed instruction. (Count)
system.cpu.commitStats0.committedInstType::FloatCvt            0      0.00%     69.91% # Class of committed instruction. (Count)
system.cpu.commitStats0.committedInstType::FloatMult            0      0.00%     69.91% # Class of committed instruction. (Count)
system.cpu.commitStats0.committedInstType::FloatMultAcc            0      0.00%     69.91% # Class of committed instruction. (Count)
system.cpu.commitStats0.committedInstType::FloatDiv            0      0.00%     69.91% # Class of committed instruction. (Count)
system.cpu.commitStats0.committedInstType::FloatMisc            0      0.00%     69.91% # Class of committed instruction. (Count)
system.cpu.commitStats0.committedInstType::FloatSqrt            0      0.00%     69.91% # Class of committed instruction. (Count)
system.cpu.commitStats0.committedInstType::SimdAdd            0      0.00%     69.91% # Class of committed instruction. (Count)
system.cpu.commitStats0.committedInstType::SimdAddAcc            0      0.00%     69.91% # Class of committed instruction. (Count)
system.cpu.commitStats0.committedInstType::SimdAlu         1602      0.00%     69.91% # Class of committed instruction. (Count)
system.cpu.commitStats0.committedInstType::SimdCmp            0      0.00%     69.91% # Class of committed instruction. (Count)
system.cpu.commitStats0.committedInstType::SimdCvt         1814      0.00%     69.91% # Class of committed instruction. (Count)
system.cpu.commitStats0.committedInstType::SimdMisc         3230      0.00%     69.91% # Class of committed instruction. (Count)
system.cpu.commitStats0.committedInstType::SimdMult            0      0.00%     69.91% # Class of committed instruction. (Count)
system.cpu.commitStats0.committedInstType::SimdMultAcc            0      0.00%     69.91% # Class of committed instruction. (Count)
system.cpu.commitStats0.committedInstType::SimdMatMultAcc            0      0.00%     69.91% # Class of committed instruction. (Count)
system.cpu.commitStats0.committedInstType::SimdShift            0      0.00%     69.91% # Class of committed instruction. (Count)
system.cpu.commitStats0.committedInstType::SimdShiftAcc            0      0.00%     69.91% # Class of committed instruction. (Count)
system.cpu.commitStats0.committedInstType::SimdDiv            0      0.00%     69.91% # Class of committed instruction. (Count)
system.cpu.commitStats0.committedInstType::SimdSqrt            0      0.00%     69.91% # Class of committed instruction. (Count)
system.cpu.commitStats0.committedInstType::SimdFloatAdd            0      0.00%     69.91% # Class of committed instruction. (Count)
system.cpu.commitStats0.committedInstType::SimdFloatAlu            0      0.00%     69.91% # Class of committed instruction. (Count)
system.cpu.commitStats0.committedInstType::SimdFloatCmp            0      0.00%     69.91% # Class of committed instruction. (Count)
system.cpu.commitStats0.committedInstType::SimdFloatCvt            0      0.00%     69.91% # Class of committed instruction. (Count)
system.cpu.commitStats0.committedInstType::SimdFloatDiv            0      0.00%     69.91% # Class of committed instruction. (Count)
system.cpu.commitStats0.committedInstType::SimdFloatMisc            0      0.00%     69.91% # Class of committed instruction. (Count)
system.cpu.commitStats0.committedInstType::SimdFloatMult            0      0.00%     69.91% # Class of committed instruction. (Count)
system.cpu.commitStats0.committedInstType::SimdFloatMultAcc            0      0.00%     69.91% # Class of committed instruction. (Count)
system.cpu.commitStats0.committedInstType::SimdFloatMatMultAcc            0      0.00%     69.91% # Class of committed instruction. (Count)
system.cpu.commitStats0.committedInstType::SimdFloatSqrt            0      0.00%     69.91% # Class of committed instruction. (Count)
system.cpu.commitStats0.committedInstType::SimdReduceAdd            0      0.00%     69.91% # Class of committed instruction. (Count)
system.cpu.commitStats0.committedInstType::SimdReduceAlu            0      0.00%     69.91% # Class of committed instruction. (Count)
system.cpu.commitStats0.committedInstType::SimdReduceCmp            0      0.00%     69.91% # Class of committed instruction. (Count)
system.cpu.commitStats0.committedInstType::SimdFloatReduceAdd            0      0.00%     69.91% # Class of committed instruction. (Count)
system.cpu.commitStats0.committedInstType::SimdFloatReduceCmp            0      0.00%     69.91% # Class of committed instruction. (Count)
system.cpu.commitStats0.committedInstType::SimdAes            0      0.00%     69.91% # Class of committed instruction. (Count)
system.cpu.commitStats0.committedInstType::SimdAesMix            0      0.00%     69.91% # Class of committed instruction. (Count)
system.cpu.commitStats0.committedInstType::SimdSha1Hash            0      0.00%     69.91% # Class of committed instruction. (Count)
system.cpu.commitStats0.committedInstType::SimdSha1Hash2            0      0.00%     69.91% # Class of committed instruction. (Count)
system.cpu.commitStats0.committedInstType::SimdSha256Hash            0      0.00%     69.91% # Class of committed instruction. (Count)
system.cpu.commitStats0.committedInstType::SimdSha256Hash2            0      0.00%     69.91% # Class of committed instruction. (Count)
system.cpu.commitStats0.committedInstType::SimdShaSigma2            0      0.00%     69.91% # Class of committed instruction. (Count)
system.cpu.commitStats0.committedInstType::SimdShaSigma3            0      0.00%     69.91% # Class of committed instruction. (Count)
system.cpu.commitStats0.committedInstType::SimdPredAlu            0      0.00%     69.91% # Class of committed instruction. (Count)
system.cpu.commitStats0.committedInstType::Matrix            0      0.00%     69.91% # Class of committed instruction. (Count)
system.cpu.commitStats0.committedInstType::MatrixMov            0      0.00%     69.91% # Class of committed instruction. (Count)
system.cpu.commitStats0.committedInstType::MatrixOP            0      0.00%     69.91% # Class of committed instruction. (Count)
system.cpu.commitStats0.committedInstType::MemRead     68069707     19.37%     89.27% # Class of committed instruction. (Count)
system.cpu.commitStats0.committedInstType::MemWrite     37706866     10.73%    100.00% # Class of committed instruction. (Count)
system.cpu.commitStats0.committedInstType::FloatMemRead          922      0.00%    100.00% # Class of committed instruction. (Count)
system.cpu.commitStats0.committedInstType::FloatMemWrite          160      0.00%    100.00% # Class of committed instruction. (Count)
system.cpu.commitStats0.committedInstType::IprAccess            0      0.00%    100.00% # Class of committed instruction. (Count)
system.cpu.commitStats0.committedInstType::InstPrefetch            0      0.00%    100.00% # Class of committed instruction. (Count)
system.cpu.commitStats0.committedInstType::VectorUnitStrideLoad            0      0.00%    100.00% # Class of committed instruction. (Count)
system.cpu.commitStats0.committedInstType::VectorUnitStrideStore            0      0.00%    100.00% # Class of committed instruction. (Count)
system.cpu.commitStats0.committedInstType::VectorUnitStrideMaskLoad            0      0.00%    100.00% # Class of committed instruction. (Count)
system.cpu.commitStats0.committedInstType::VectorUnitStrideMaskStore            0      0.00%    100.00% # Class of committed instruction. (Count)
system.cpu.commitStats0.committedInstType::VectorStridedLoad            0      0.00%    100.00% # Class of committed instruction. (Count)
system.cpu.commitStats0.committedInstType::VectorStridedStore            0      0.00%    100.00% # Class of committed instruction. (Count)
system.cpu.commitStats0.committedInstType::VectorIndexedLoad            0      0.00%    100.00% # Class of committed instruction. (Count)
system.cpu.commitStats0.committedInstType::VectorIndexedStore            0      0.00%    100.00% # Class of committed instruction. (Count)
system.cpu.commitStats0.committedInstType::VectorUnitStrideFaultOnlyFirstLoad            0      0.00%    100.00% # Class of committed instruction. (Count)
system.cpu.commitStats0.committedInstType::VectorWholeRegisterLoad            0      0.00%    100.00% # Class of committed instruction. (Count)
system.cpu.commitStats0.committedInstType::VectorWholeRegisterStore            0      0.00%    100.00% # Class of committed instruction. (Count)
system.cpu.commitStats0.committedInstType::VectorIntegerArith            0      0.00%    100.00% # Class of committed instruction. (Count)
system.cpu.commitStats0.committedInstType::VectorFloatArith            0      0.00%    100.00% # Class of committed instruction. (Count)
system.cpu.commitStats0.committedInstType::VectorFloatConvert            0      0.00%    100.00% # Class of committed instruction. (Count)
system.cpu.commitStats0.committedInstType::VectorIntegerReduce            0      0.00%    100.00% # Class of committed instruction. (Count)
system.cpu.commitStats0.committedInstType::VectorFloatReduce            0      0.00%    100.00% # Class of committed instruction. (Count)
system.cpu.commitStats0.committedInstType::VectorMisc            0      0.00%    100.00% # Class of committed instruction. (Count)
system.cpu.commitStats0.committedInstType::VectorIntegerExtension            0      0.00%    100.00% # Class of committed instruction. (Count)
system.cpu.commitStats0.committedInstType::VectorConfig            0      0.00%    100.00% # Class of committed instruction. (Count)
system.cpu.commitStats0.committedInstType::total    351508316                       # Class of committed instruction. (Count)
system.cpu.commitStats0.committedControl::IsControl     27993930                       # Class of control type instructions committed (Count)
system.cpu.commitStats0.committedControl::IsDirectControl     27826381                       # Class of control type instructions committed (Count)
system.cpu.commitStats0.committedControl::IsIndirectControl       167549                       # Class of control type instructions committed (Count)
system.cpu.commitStats0.committedControl::IsCondControl     26572448                       # Class of control type instructions committed (Count)
system.cpu.commitStats0.committedControl::IsUncondControl      1421482                       # Class of control type instructions committed (Count)
system.cpu.commitStats0.committedControl::IsCall       166530                       # Class of control type instructions committed (Count)
system.cpu.commitStats0.committedControl::IsReturn       166525                       # Class of control type instructions committed (Count)
system.cpu.dcache.demandHits::cpu.data       57574652                       # number of demand (read+write) hits (Count)
system.cpu.dcache.demandHits::total          57574652                       # number of demand (read+write) hits (Count)
system.cpu.dcache.overallHits::cpu.data      57574652                       # number of overall hits (Count)
system.cpu.dcache.overallHits::total         57574652                       # number of overall hits (Count)
system.cpu.dcache.demandMisses::cpu.data      1672178                       # number of demand (read+write) misses (Count)
system.cpu.dcache.demandMisses::total         1672178                       # number of demand (read+write) misses (Count)
system.cpu.dcache.overallMisses::cpu.data      1672178                       # number of overall misses (Count)
system.cpu.dcache.overallMisses::total        1672178                       # number of overall misses (Count)
system.cpu.dcache.demandMissLatency::cpu.data 161503423999                       # number of demand (read+write) miss ticks (Tick)
system.cpu.dcache.demandMissLatency::total 161503423999                       # number of demand (read+write) miss ticks (Tick)
system.cpu.dcache.overallMissLatency::cpu.data 161503423999                       # number of overall miss ticks (Tick)
system.cpu.dcache.overallMissLatency::total 161503423999                       # number of overall miss ticks (Tick)
system.cpu.dcache.demandAccesses::cpu.data     59246830                       # number of demand (read+write) accesses (Count)
system.cpu.dcache.demandAccesses::total      59246830                       # number of demand (read+write) accesses (Count)
system.cpu.dcache.overallAccesses::cpu.data     59246830                       # number of overall (read+write) accesses (Count)
system.cpu.dcache.overallAccesses::total     59246830                       # number of overall (read+write) accesses (Count)
system.cpu.dcache.demandMissRate::cpu.data     0.028224                       # miss rate for demand accesses (Ratio)
system.cpu.dcache.demandMissRate::total      0.028224                       # miss rate for demand accesses (Ratio)
system.cpu.dcache.overallMissRate::cpu.data     0.028224                       # miss rate for overall accesses (Ratio)
system.cpu.dcache.overallMissRate::total     0.028224                       # miss rate for overall accesses (Ratio)
system.cpu.dcache.demandAvgMissLatency::cpu.data 96582.674810                       # average overall miss latency in ticks ((Tick/Count))
system.cpu.dcache.demandAvgMissLatency::total 96582.674810                       # average overall miss latency in ticks ((Tick/Count))
system.cpu.dcache.overallAvgMissLatency::cpu.data 96582.674810                       # average overall miss latency ((Tick/Count))
system.cpu.dcache.overallAvgMissLatency::total 96582.674810                       # average overall miss latency ((Tick/Count))
system.cpu.dcache.blockedCycles::no_mshrs          374                       # number of cycles access was blocked (Cycle)
system.cpu.dcache.blockedCycles::no_targets            1                       # number of cycles access was blocked (Cycle)
system.cpu.dcache.blockedCauses::no_mshrs           10                       # number of times access was blocked (Count)
system.cpu.dcache.blockedCauses::no_targets            1                       # number of times access was blocked (Count)
system.cpu.dcache.avgBlocked::no_mshrs      37.400000                       # average number of cycles each access was blocked ((Cycle/Count))
system.cpu.dcache.avgBlocked::no_targets            1                       # average number of cycles each access was blocked ((Cycle/Count))
system.cpu.dcache.writebacks::writebacks        17890                       # number of writebacks (Count)
system.cpu.dcache.writebacks::total             17890                       # number of writebacks (Count)
system.cpu.dcache.demandMshrHits::cpu.data        77252                       # number of demand (read+write) MSHR hits (Count)
system.cpu.dcache.demandMshrHits::total         77252                       # number of demand (read+write) MSHR hits (Count)
system.cpu.dcache.overallMshrHits::cpu.data        77252                       # number of overall MSHR hits (Count)
system.cpu.dcache.overallMshrHits::total        77252                       # number of overall MSHR hits (Count)
system.cpu.dcache.demandMshrMisses::cpu.data      1594926                       # number of demand (read+write) MSHR misses (Count)
system.cpu.dcache.demandMshrMisses::total      1594926                       # number of demand (read+write) MSHR misses (Count)
system.cpu.dcache.overallMshrMisses::cpu.data      1594926                       # number of overall MSHR misses (Count)
system.cpu.dcache.overallMshrMisses::total      1594926                       # number of overall MSHR misses (Count)
system.cpu.dcache.demandMshrMissLatency::cpu.data 157013111000                       # number of demand (read+write) MSHR miss ticks (Tick)
system.cpu.dcache.demandMshrMissLatency::total 157013111000                       # number of demand (read+write) MSHR miss ticks (Tick)
system.cpu.dcache.overallMshrMissLatency::cpu.data 157013111000                       # number of overall MSHR miss ticks (Tick)
system.cpu.dcache.overallMshrMissLatency::total 157013111000                       # number of overall MSHR miss ticks (Tick)
system.cpu.dcache.demandMshrMissRate::cpu.data     0.026920                       # mshr miss ratio for demand accesses (Ratio)
system.cpu.dcache.demandMshrMissRate::total     0.026920                       # mshr miss ratio for demand accesses (Ratio)
system.cpu.dcache.overallMshrMissRate::cpu.data     0.026920                       # mshr miss ratio for overall accesses (Ratio)
system.cpu.dcache.overallMshrMissRate::total     0.026920                       # mshr miss ratio for overall accesses (Ratio)
system.cpu.dcache.demandAvgMshrMissLatency::cpu.data 98445.389316                       # average overall mshr miss latency ((Tick/Count))
system.cpu.dcache.demandAvgMshrMissLatency::total 98445.389316                       # average overall mshr miss latency ((Tick/Count))
system.cpu.dcache.overallAvgMshrMissLatency::cpu.data 98445.389316                       # average overall mshr miss latency ((Tick/Count))
system.cpu.dcache.overallAvgMshrMissLatency::total 98445.389316                       # average overall mshr miss latency ((Tick/Count))
system.cpu.dcache.replacements                 752231                       # number of replacements (Count)
system.cpu.dcache.CleanInvalidReq.missLatency::cpu.data  45450809000                       # number of CleanInvalidReq miss ticks (Tick)
system.cpu.dcache.CleanInvalidReq.missLatency::total  45450809000                       # number of CleanInvalidReq miss ticks (Tick)
system.cpu.dcache.CleanInvalidReq.avgMissLatency::cpu.data          inf                       # average CleanInvalidReq miss latency ((Tick/Count))
system.cpu.dcache.CleanInvalidReq.avgMissLatency::total          inf                       # average CleanInvalidReq miss latency ((Tick/Count))
system.cpu.dcache.CleanInvalidReq.mshrMisses::cpu.data      1567280                       # number of CleanInvalidReq MSHR misses (Count)
system.cpu.dcache.CleanInvalidReq.mshrMisses::total      1567280                       # number of CleanInvalidReq MSHR misses (Count)
system.cpu.dcache.CleanInvalidReq.mshrMissLatency::cpu.data  81499135000                       # number of CleanInvalidReq MSHR miss ticks (Tick)
system.cpu.dcache.CleanInvalidReq.mshrMissLatency::total  81499135000                       # number of CleanInvalidReq MSHR miss ticks (Tick)
system.cpu.dcache.CleanInvalidReq.mshrMissRate::cpu.data          inf                       # mshr miss rate for CleanInvalidReq accesses (Ratio)
system.cpu.dcache.CleanInvalidReq.mshrMissRate::total          inf                       # mshr miss rate for CleanInvalidReq accesses (Ratio)
system.cpu.dcache.CleanInvalidReq.avgMshrMissLatency::cpu.data 52000.366878                       # average CleanInvalidReq mshr miss latency ((Tick/Count))
system.cpu.dcache.CleanInvalidReq.avgMshrMissLatency::total 52000.366878                       # average CleanInvalidReq mshr miss latency ((Tick/Count))
system.cpu.dcache.ReadReq.hits::cpu.data     21437133                       # number of ReadReq hits (Count)
system.cpu.dcache.ReadReq.hits::total        21437133                       # number of ReadReq hits (Count)
system.cpu.dcache.ReadReq.misses::cpu.data      1669911                       # number of ReadReq misses (Count)
system.cpu.dcache.ReadReq.misses::total       1669911                       # number of ReadReq misses (Count)
system.cpu.dcache.ReadReq.missLatency::cpu.data 161282462000                       # number of ReadReq miss ticks (Tick)
system.cpu.dcache.ReadReq.missLatency::total 161282462000                       # number of ReadReq miss ticks (Tick)
system.cpu.dcache.ReadReq.accesses::cpu.data     23107044                       # number of ReadReq accesses(hits+misses) (Count)
system.cpu.dcache.ReadReq.accesses::total     23107044                       # number of ReadReq accesses(hits+misses) (Count)
system.cpu.dcache.ReadReq.missRate::cpu.data     0.072268                       # miss rate for ReadReq accesses (Ratio)
system.cpu.dcache.ReadReq.missRate::total     0.072268                       # miss rate for ReadReq accesses (Ratio)
system.cpu.dcache.ReadReq.avgMissLatency::cpu.data 96581.471707                       # average ReadReq miss latency ((Tick/Count))
system.cpu.dcache.ReadReq.avgMissLatency::total 96581.471707                       # average ReadReq miss latency ((Tick/Count))
system.cpu.dcache.ReadReq.mshrHits::cpu.data        77250                       # number of ReadReq MSHR hits (Count)
system.cpu.dcache.ReadReq.mshrHits::total        77250                       # number of ReadReq MSHR hits (Count)
system.cpu.dcache.ReadReq.mshrMisses::cpu.data      1592661                       # number of ReadReq MSHR misses (Count)
system.cpu.dcache.ReadReq.mshrMisses::total      1592661                       # number of ReadReq MSHR misses (Count)
system.cpu.dcache.ReadReq.mshrMissLatency::cpu.data 156796853000                       # number of ReadReq MSHR miss ticks (Tick)
system.cpu.dcache.ReadReq.mshrMissLatency::total 156796853000                       # number of ReadReq MSHR miss ticks (Tick)
system.cpu.dcache.ReadReq.mshrMissRate::cpu.data     0.068925                       # mshr miss rate for ReadReq accesses (Ratio)
system.cpu.dcache.ReadReq.mshrMissRate::total     0.068925                       # mshr miss rate for ReadReq accesses (Ratio)
system.cpu.dcache.ReadReq.avgMshrMissLatency::cpu.data 98449.609176                       # average ReadReq mshr miss latency ((Tick/Count))
system.cpu.dcache.ReadReq.avgMshrMissLatency::total 98449.609176                       # average ReadReq mshr miss latency ((Tick/Count))
system.cpu.dcache.WriteReq.hits::cpu.data     36137519                       # number of WriteReq hits (Count)
system.cpu.dcache.WriteReq.hits::total       36137519                       # number of WriteReq hits (Count)
system.cpu.dcache.WriteReq.misses::cpu.data         2267                       # number of WriteReq misses (Count)
system.cpu.dcache.WriteReq.misses::total         2267                       # number of WriteReq misses (Count)
system.cpu.dcache.WriteReq.missLatency::cpu.data    220961999                       # number of WriteReq miss ticks (Tick)
system.cpu.dcache.WriteReq.missLatency::total    220961999                       # number of WriteReq miss ticks (Tick)
system.cpu.dcache.WriteReq.accesses::cpu.data     36139786                       # number of WriteReq accesses(hits+misses) (Count)
system.cpu.dcache.WriteReq.accesses::total     36139786                       # number of WriteReq accesses(hits+misses) (Count)
system.cpu.dcache.WriteReq.missRate::cpu.data     0.000063                       # miss rate for WriteReq accesses (Ratio)
system.cpu.dcache.WriteReq.missRate::total     0.000063                       # miss rate for WriteReq accesses (Ratio)
system.cpu.dcache.WriteReq.avgMissLatency::cpu.data 97468.901191                       # average WriteReq miss latency ((Tick/Count))
system.cpu.dcache.WriteReq.avgMissLatency::total 97468.901191                       # average WriteReq miss latency ((Tick/Count))
system.cpu.dcache.WriteReq.mshrHits::cpu.data            2                       # number of WriteReq MSHR hits (Count)
system.cpu.dcache.WriteReq.mshrHits::total            2                       # number of WriteReq MSHR hits (Count)
system.cpu.dcache.WriteReq.mshrMisses::cpu.data         2265                       # number of WriteReq MSHR misses (Count)
system.cpu.dcache.WriteReq.mshrMisses::total         2265                       # number of WriteReq MSHR misses (Count)
system.cpu.dcache.WriteReq.mshrMissLatency::cpu.data    216258000                       # number of WriteReq MSHR miss ticks (Tick)
system.cpu.dcache.WriteReq.mshrMissLatency::total    216258000                       # number of WriteReq MSHR miss ticks (Tick)
system.cpu.dcache.WriteReq.mshrMissRate::cpu.data     0.000063                       # mshr miss rate for WriteReq accesses (Ratio)
system.cpu.dcache.WriteReq.mshrMissRate::total     0.000063                       # mshr miss rate for WriteReq accesses (Ratio)
system.cpu.dcache.WriteReq.avgMshrMissLatency::cpu.data 95478.145695                       # average WriteReq mshr miss latency ((Tick/Count))
system.cpu.dcache.WriteReq.avgMshrMissLatency::total 95478.145695                       # average WriteReq mshr miss latency ((Tick/Count))
system.cpu.dcache.power_state.pwrStateResidencyTicks::UNDEFINED 476841169000                       # Cumulative time (in ticks) in various power states (Tick)
system.cpu.dcache.tags.tagsInUse           965.707751                       # Average ticks per tags in use ((Tick/Count))
system.cpu.dcache.tags.totalRefs             60011249                       # Total number of references to valid blocks. (Count)
system.cpu.dcache.tags.sampledRefs            1594926                       # Sample count of references to valid blocks. (Count)
system.cpu.dcache.tags.avgRefs              37.626353                       # Average number of references to valid blocks. ((Count/Count))
system.cpu.dcache.tags.warmupTick              222000                       # The tick when the warmup percentage was hit. (Tick)
system.cpu.dcache.tags.occupancies::cpu.data   965.707751                       # Average occupied blocks per tick, per requestor ((Count/Tick))
[...]
system.mem_ctrl.dram.numReads::cpu.data       1569571                       # Number of read requests responded to by this memory (Count)
system.mem_ctrl.dram.numReads::total          1570140                       # Number of read requests responded to by this memory (Count)
system.mem_ctrl.dram.numWrites::writebacks          259                       # Number of write requests responded to by this memory (Count)
system.mem_ctrl.dram.numWrites::total             259                       # Number of write requests responded to by this memory (Count)
system.mem_ctrl.dram.bwRead::cpu.inst           76369                       # Total read bandwidth from this memory ((Byte/Second))
system.mem_ctrl.dram.bwRead::cpu.data       210662482                       # Total read bandwidth from this memory ((Byte/Second))
system.mem_ctrl.dram.bwRead::total          210738851                       # Total read bandwidth from this memory ((Byte/Second))
system.mem_ctrl.dram.bwInstRead::cpu.inst        76369                       # Instruction read bandwidth from this memory ((Byte/Second))
system.mem_ctrl.dram.bwInstRead::total          76369                       # Instruction read bandwidth from this memory ((Byte/Second))
system.mem_ctrl.dram.bwWrite::writebacks        34762                       # Write bandwidth from this memory ((Byte/Second))
system.mem_ctrl.dram.bwWrite::total             34762                       # Write bandwidth from this memory ((Byte/Second))
system.mem_ctrl.dram.bwTotal::writebacks        34762                       # Total bandwidth to/from this memory ((Byte/Second))
system.mem_ctrl.dram.bwTotal::cpu.inst          76369                       # Total bandwidth to/from this memory ((Byte/Second))
system.mem_ctrl.dram.bwTotal::cpu.data      210662482                       # Total bandwidth to/from this memory ((Byte/Second))
system.mem_ctrl.dram.bwTotal::total         210773613                       # Total bandwidth to/from this memory ((Byte/Second))
system.mem_ctrl.dram.readBursts               1466020                       # Number of DRAM read bursts (Count)
system.mem_ctrl.dram.writeBursts                  237                       # Number of DRAM write bursts (Count)
system.mem_ctrl.dram.perBankRdBursts::0         87896                       # Per bank write bursts (Count)
system.mem_ctrl.dram.perBankRdBursts::1         87847                       # Per bank write bursts (Count)
system.mem_ctrl.dram.perBankRdBursts::2         87855                       # Per bank write bursts (Count)
system.mem_ctrl.dram.perBankRdBursts::3         87824                       # Per bank write bursts (Count)
system.mem_ctrl.dram.perBankRdBursts::4         87808                       # Per bank write bursts (Count)
system.mem_ctrl.dram.perBankRdBursts::5         87821                       # Per bank write bursts (Count)
system.mem_ctrl.dram.perBankRdBursts::6        197513                       # Per bank write bursts (Count)
system.mem_ctrl.dram.perBankRdBursts::7         38547                       # Per bank write bursts (Count)
system.mem_ctrl.dram.perBankRdBursts::8         87852                       # Per bank write bursts (Count)
system.mem_ctrl.dram.perBankRdBursts::9         87867                       # Per bank write bursts (Count)
system.mem_ctrl.dram.perBankRdBursts::10        87911                       # Per bank write bursts (Count)
system.mem_ctrl.dram.perBankRdBursts::11        87891                       # Per bank write bursts (Count)
system.mem_ctrl.dram.perBankRdBursts::12        87833                       # Per bank write bursts (Count)
system.mem_ctrl.dram.perBankRdBursts::13        87861                       # Per bank write bursts (Count)
system.mem_ctrl.dram.perBankRdBursts::14        87835                       # Per bank write bursts (Count)
system.mem_ctrl.dram.perBankRdBursts::15        87859                       # Per bank write bursts (Count)
system.mem_ctrl.dram.perBankWrBursts::0            16                       # Per bank write bursts (Count)
system.mem_ctrl.dram.perBankWrBursts::1            16                       # Per bank write bursts (Count)
system.mem_ctrl.dram.perBankWrBursts::2            16                       # Per bank write bursts (Count)
system.mem_ctrl.dram.perBankWrBursts::3            16                       # Per bank write bursts (Count)
system.mem_ctrl.dram.perBankWrBursts::4            16                       # Per bank write bursts (Count)
system.mem_ctrl.dram.perBankWrBursts::5            16                       # Per bank write bursts (Count)
system.mem_ctrl.dram.perBankWrBursts::6             6                       # Per bank write bursts (Count)
system.mem_ctrl.dram.perBankWrBursts::7             7                       # Per bank write bursts (Count)
system.mem_ctrl.dram.perBankWrBursts::8            16                       # Per bank write bursts (Count)
system.mem_ctrl.dram.perBankWrBursts::9            16                       # Per bank write bursts (Count)
system.mem_ctrl.dram.perBankWrBursts::10           16                       # Per bank write bursts (Count)
system.mem_ctrl.dram.perBankWrBursts::11           16                       # Per bank write bursts (Count)
system.mem_ctrl.dram.perBankWrBursts::12           16                       # Per bank write bursts (Count)
system.mem_ctrl.dram.perBankWrBursts::13           16                       # Per bank write bursts (Count)
system.mem_ctrl.dram.perBankWrBursts::14           16                       # Per bank write bursts (Count)
system.mem_ctrl.dram.perBankWrBursts::15           16                       # Per bank write bursts (Count)
system.mem_ctrl.dram.totQLat              13334522750                       # Total ticks spent queuing (Tick)
system.mem_ctrl.dram.totBusLat             7330100000                       # Total ticks spent in databus transfers (Tick)
system.mem_ctrl.dram.totMemAccLat         40822397750                       # Total ticks spent from burst creation until serviced by the DRAM (Tick)
system.mem_ctrl.dram.avgQLat                  9095.73                       # Average queueing delay per DRAM burst ((Tick/Count))
system.mem_ctrl.dram.avgBusLat                5000.00                       # Average bus latency per DRAM burst ((Tick/Count))
system.mem_ctrl.dram.avgMemAccLat            27845.73                       # Average memory access latency per DRAM burst ((Tick/Count))
system.mem_ctrl.dram.readRowHits               953154                       # Number of row buffer hits during reads (Count)
system.mem_ctrl.dram.writeRowHits                 219                       # Number of row buffer hits during writes (Count)
system.mem_ctrl.dram.readRowHitRate             65.02                       # Row buffer hit rate for reads (Ratio)
system.mem_ctrl.dram.writeRowHitRate            92.41                       # Row buffer hit rate for writes (Ratio)
system.mem_ctrl.dram.bytesPerActivate::samples       512878                       # Bytes accessed per row activation (Byte)
system.mem_ctrl.dram.bytesPerActivate::mean   182.965867                       # Bytes accessed per row activation (Byte)
system.mem_ctrl.dram.bytesPerActivate::gmean   158.118588                       # Bytes accessed per row activation (Byte)
system.mem_ctrl.dram.bytesPerActivate::stdev   115.355742                       # Bytes accessed per row activation (Byte)
system.mem_ctrl.dram.bytesPerActivate::0-127        75802     14.78%     14.78% # Bytes accessed per row activation (Byte)
system.mem_ctrl.dram.bytesPerActivate::128-255       285119     55.59%     70.37% # Bytes accessed per row activation (Byte)
system.mem_ctrl.dram.bytesPerActivate::256-383       137881     26.88%     97.26% # Bytes accessed per row activation (Byte)
system.mem_ctrl.dram.bytesPerActivate::384-511         1868      0.36%     97.62% # Bytes accessed per row activation (Byte)
system.mem_ctrl.dram.bytesPerActivate::512-639         1808      0.35%     97.97% # Bytes accessed per row activation (Byte)
system.mem_ctrl.dram.bytesPerActivate::640-767         1794      0.35%     98.32% # Bytes accessed per row activation (Byte)
system.mem_ctrl.dram.bytesPerActivate::768-895         8493      1.66%     99.98% # Bytes accessed per row activation (Byte)
system.mem_ctrl.dram.bytesPerActivate::896-1023            7      0.00%     99.98% # Bytes accessed per row activation (Byte)
system.mem_ctrl.dram.bytesPerActivate::1024-1151          106      0.02%    100.00% # Bytes accessed per row activation (Byte)
system.mem_ctrl.dram.bytesPerActivate::total       512878                       # Bytes accessed per row activation (Byte)
system.mem_ctrl.dram.bytesRead               93825280                       # Total bytes read (Byte)
system.mem_ctrl.dram.bytesWritten               15168                       # Total bytes written (Byte)
system.mem_ctrl.dram.avgRdBW               196.764219                       # Average DRAM read bandwidth in MiBytes/s ((Byte/Second))
system.mem_ctrl.dram.avgWrBW                 0.031809                       # Average DRAM write bandwidth in MiBytes/s ((Byte/Second))
system.mem_ctrl.dram.peakBW                  12800.00                       # Theoretical peak bandwidth in MiByte/s ((Byte/Second))
system.mem_ctrl.dram.busUtil                     1.54                       # Data bus utilization in percentage (Ratio)
system.mem_ctrl.dram.busUtilRead                 1.54                       # Data bus utilization in percentage for reads (Ratio)
system.mem_ctrl.dram.busUtilWrite                0.00                       # Data bus utilization in percentage for writes (Ratio)
system.mem_ctrl.dram.pageHitRate                65.02                       # Row buffer hit rate, read and write combined (Ratio)
system.mem_ctrl.dram.power_state.pwrStateResidencyTicks::UNDEFINED 476841169000                       # Cumulative time (in ticks) in various power states (Tick)
system.mem_ctrl.dram.rank0.actEnergy       1818686520                       # Energy for activate commands per rank (pJ) (Joule)
system.mem_ctrl.dram.rank0.preEnergy        966639630                       # Energy for precharge commands per rank (pJ) (Joule)
system.mem_ctrl.dram.rank0.readEnergy      5448612540                       # Energy for read commands per rank (pJ) (Joule)
system.mem_ctrl.dram.rank0.writeEnergy         568980                       # Energy for write commands per rank (pJ) (Joule)
system.mem_ctrl.dram.rank0.refreshEnergy 37641168240.000008                       # Energy for refresh commands per rank (pJ) (Joule)
system.mem_ctrl.dram.rank0.actBackEnergy 156296014950                       # Energy for active background per rank (pJ) (Joule)
system.mem_ctrl.dram.rank0.preBackEnergy  51489312480                       # Energy for precharge background per rank (pJ) (Joule)
system.mem_ctrl.dram.rank0.actPowerDownEnergy            0                       # Energy for active power-down per rank (pJ) (Joule)
system.mem_ctrl.dram.rank0.prePowerDownEnergy            0                       # Energy for precharge power-down per rank (pJ) (Joule)
system.mem_ctrl.dram.rank0.selfRefreshEnergy            0                       # Energy for self refresh per rank (pJ) (Joule)
system.mem_ctrl.dram.rank0.totalEnergy   253661003340                       # Total energy per rank (pJ) (Joule)
system.mem_ctrl.dram.rank0.averagePower    531.961206                       # Core power per rank (mW) (Watt)
system.mem_ctrl.dram.rank0.totalIdleTime            0                       # Total Idle time Per DRAM Rank (Tick)
system.mem_ctrl.dram.rank0.pwrStateTime::IDLE 132583020750                       # Time in different power states (Tick)
system.mem_ctrl.dram.rank0.pwrStateTime::REF  15922660000                       # Time in different power states (Tick)
system.mem_ctrl.dram.rank0.pwrStateTime::SREF            0                       # Time in different power states (Tick)
system.mem_ctrl.dram.rank0.pwrStateTime::PRE_PDN            0                       # Time in different power states (Tick)
system.mem_ctrl.dram.rank0.pwrStateTime::ACT 328335488250                       # Time in different power states (Tick)
system.mem_ctrl.dram.rank0.pwrStateTime::ACT_PDN            0                       # Time in different power states (Tick)
system.mem_ctrl.dram.rank1.actEnergy       1843305240                       # Energy for activate commands per rank (pJ) (Joule)
system.mem_ctrl.dram.rank1.preEnergy        979732380                       # Energy for precharge commands per rank (pJ) (Joule)
system.mem_ctrl.dram.rank1.readEnergy      5018770260                       # Energy for read commands per rank (pJ) (Joule)
system.mem_ctrl.dram.rank1.writeEnergy         668160                       # Energy for write commands per rank (pJ) (Joule)
system.mem_ctrl.dram.rank1.refreshEnergy 37641168240.000008                       # Energy for refresh commands per rank (pJ) (Joule)
system.mem_ctrl.dram.rank1.actBackEnergy 119673120510                       # Energy for active background per rank (pJ) (Joule)
system.mem_ctrl.dram.rank1.preBackEnergy  82329644640                       # Energy for precharge background per rank (pJ) (Joule)
system.mem_ctrl.dram.rank1.actPowerDownEnergy            0                       # Energy for active power-down per rank (pJ) (Joule)
system.mem_ctrl.dram.rank1.prePowerDownEnergy            0                       # Energy for precharge power-down per rank (pJ) (Joule)
system.mem_ctrl.dram.rank1.selfRefreshEnergy            0                       # Energy for self refresh per rank (pJ) (Joule)
system.mem_ctrl.dram.rank1.totalEnergy   247486409430                       # Total energy per rank (pJ) (Joule)
system.mem_ctrl.dram.rank1.averagePower    519.012253                       # Core power per rank (mW) (Watt)
system.mem_ctrl.dram.rank1.totalIdleTime            0                       # Total Idle time Per DRAM Rank (Tick)
system.mem_ctrl.dram.rank1.pwrStateTime::IDLE 213029816500                       # Time in different power states (Tick)
system.mem_ctrl.dram.rank1.pwrStateTime::REF  15922660000                       # Time in different power states (Tick)
system.mem_ctrl.dram.rank1.pwrStateTime::SREF            0                       # Time in different power states (Tick)
system.mem_ctrl.dram.rank1.pwrStateTime::PRE_PDN            0                       # Time in different power states (Tick)
system.mem_ctrl.dram.rank1.pwrStateTime::ACT 247888692500                       # Time in different power states (Tick)
system.mem_ctrl.dram.rank1.pwrStateTime::ACT_PDN            0                       # Time in different power states (Tick)
system.mem_ctrl.power_state.pwrStateResidencyTicks::UNDEFINED 476841169000                       # Cumulative time (in ticks) in various power states (Tick)
system.membus.transDist::ReadResp             1567961                       # Transaction distribution (Count)
system.membus.transDist::WritebackDirty             3                       # Transaction distribution (Count)
system.membus.transDist::WriteClean               256                       # Transaction distribution (Count)
system.membus.transDist::CleanEvict                 2                       # Transaction distribution (Count)
system.membus.transDist::ReadExReq               2179                       # Transaction distribution (Count)
system.membus.transDist::ReadExResp              2179                       # Transaction distribution (Count)
system.membus.transDist::ReadSharedReq        1567961                       # Transaction distribution (Count)
system.membus.transDist::CleanInvalidReq      1567280                       # Transaction distribution (Count)
system.membus.pktCount_system.l2cache.mem_side_port::system.mem_ctrl.port      4707821                       # Packet count per connected requestor and responder (Count)
system.membus.pktCount_system.l2cache.mem_side_port::total      4707821                       # Packet count per connected requestor and responder (Count)
system.membus.pktCount::total                 4707821                       # Packet count per connected requestor and responder (Count)
system.membus.pktSize_system.l2cache.mem_side_port::system.mem_ctrl.port    100505536                       # Cumulative packet size per connected requestor and responder (Byte)
system.membus.pktSize_system.l2cache.mem_side_port::total    100505536                       # Cumulative packet size per connected requestor and responder (Byte)
system.membus.pktSize::total                100505536                       # Cumulative packet size per connected requestor and responder (Byte)
system.membus.snoops                                0                       # Total snoops (Count)
system.membus.snoopTraffic                          0                       # Total snoop traffic (Byte)
system.membus.snoopFanout::samples            3137420                       # Request fanout histogram (Count)
system.membus.snoopFanout::mean                     0                       # Request fanout histogram (Count)
system.membus.snoopFanout::stdev                    0                       # Request fanout histogram (Count)
system.membus.snoopFanout::underflows               0      0.00%      0.00% # Request fanout histogram (Count)
system.membus.snoopFanout::0                  3137420    100.00%    100.00% # Request fanout histogram (Count)
system.membus.snoopFanout::1                        0      0.00%    100.00% # Request fanout histogram (Count)
system.membus.snoopFanout::overflows                0      0.00%    100.00% # Request fanout histogram (Count)
system.membus.snoopFanout::min_value                0                       # Request fanout histogram (Count)
system.membus.snoopFanout::max_value                0                       # Request fanout histogram (Count)
system.membus.snoopFanout::total              3137420                       # Request fanout histogram (Count)
system.membus.power_state.pwrStateResidencyTicks::UNDEFINED 476841169000                       # Cumulative time (in ticks) in various power states (Tick)
system.membus.reqLayer2.occupancy          3138717000                       # Layer occupancy (ticks) (Tick)
system.membus.reqLayer2.utilization               0.0                       # Layer utilization (Ratio)
system.membus.respLayer0.occupancy         8342129000                       # Layer occupancy (ticks) (Tick)
system.membus.respLayer0.utilization              0.0                       # Layer utilization (Ratio)
system.membus.snoop_filter.totRequests        3137425                       # Total number of requests made to the snoop filter. (Count)
system.membus.snoop_filter.hitSingleRequests      1567285                       # Number of requests hitting in the snoop filter with a single holder of the requested data. (Count)
system.membus.snoop_filter.hitMultiRequests            0                       # Number of requests hitting in the snoop filter with multiple (>1) holders of the requested data. (Count)
system.membus.snoop_filter.totSnoops                0                       # Total number of snoops made to the snoop filter. (Count)
system.membus.snoop_filter.hitSingleSnoops            0                       # Number of snoops hitting in the snoop filter with a single holder of the requested data. (Count)
system.membus.snoop_filter.hitMultiSnoops            0                       # Number of snoops hitting in the snoop filter with multiple (>1) holders of the requested data. (Count)
system.workload.inst.arm                            0                       # number of arm instructions executed (Count)
system.workload.inst.quiesce                        0                       # number of quiesce instructions executed (Count)

---------- End Simulation Statistics   ----------
