
---------- Begin Simulation Statistics ----------
simSeconds                                   3.019915                       # Number of seconds simulated (Second)
simTicks                                 3019915266000                       # Number of ticks simulated (Tick)
finalTick                                3019915266000                       # Number of ticks from beginning of simulation (restored from checkpoints and never reset) (Tick)
simFreq                                  1000000000000                       # The number of ticks per simulated second ((Tick/Second))
hostSeconds                                   4720.99                       # Real time elapsed on the host (Second)
hostTickRate                                639678100                       # The number of ticks simulated per host second (ticks/s) ((Tick/Second))
hostMemory                                     722976                       # Number of bytes of host memory used (Byte)
simInsts                                   1244611903                       # Number of instructions simulated (Count)
simOps                                     2122822452                       # Number of ops (including micro ops) simulated (Count)
hostInstRate                                   263634                       # Simulator instruction rate (inst/s) ((Count/Second))
hostOpRate                                     449656                       # Simulator op (including micro ops) rate (op/s) ((Count/Second))
system.clk_domain.clock                          1000                       # Clock period in ticks (Tick)
system.clk_domain.voltage_domain.voltage            1                       # Voltage in Volts (Volt)
system.cpu.numCycles                       3019915267                       # Number of cpu cycles simulated (Cycle)
system.cpu.cpi                               2.426391                       # CPI: cycles per instruction (core level) ((Cycle/Count))
system.cpu.ipc                               0.412135                       # IPC: instructions per cycle (core level) ((Count/Cycle))
system.cpu.numWorkItemsStarted                      0                       # Number of work items this cpu started (Count)
system.cpu.numWorkItemsCompleted                    0                       # Number of work items this cpu completed (Count)
system.cpu.instsAdded                      3259661259                       # Number of instructions added to the IQ (excludes non-spec) (Count)
system.cpu.nonSpecInstsAdded                 61371320                       # Number of non-speculative instructions added to the IQ (Count)
system.cpu.instsIssued                     2590952804                       # Number of instructions issued (Count)
system.cpu.squashedInstsIssued                  15251                       # Number of squashed instructions issued (Count)
system.cpu.squashedInstsExamined           1198210113                       # Number of squashed instructions iterated over during squash; mainly for profiling (Count)
system.cpu.squashedOperandsExamined        3350164941                       # Number of squashed operands that are examined and possibly removed from graph (Count)
system.cpu.squashedNonSpecRemoved            34638320                       # Number of squashed non-spec instructions that were removed (Count)
system.cpu.numIssuedDist::samples          3019887393                       # Number of insts issued each cycle (Count)
system.cpu.numIssuedDist::mean               0.857963                       # Number of insts issued each cycle (Count)
system.cpu.numIssuedDist::stdev              1.389203                       # Number of insts issued each cycle (Count)
system.cpu.numIssuedDist::underflows                0      0.00%      0.00% # Number of insts issued each cycle (Count)
system.cpu.numIssuedDist::0                1941237768     64.28%     64.28% # Number of insts issued each cycle (Count)
system.cpu.numIssuedDist::1                 300888103      9.96%     74.25% # Number of insts issued each cycle (Count)
system.cpu.numIssuedDist::2                 341327715     11.30%     85.55% # Number of insts issued each cycle (Count)
system.cpu.numIssuedDist::3                 245640202      8.13%     93.68% # Number of insts issued each cycle (Count)
system.cpu.numIssuedDist::4                 129133467      4.28%     97.96% # Number of insts issued each cycle (Count)
system.cpu.numIssuedDist::5                  38939366      1.29%     99.25% # Number of insts issued each cycle (Count)
system.cpu.numIssuedDist::6                   8945307      0.30%     99.54% # Number of insts issued each cycle (Count)
system.cpu.numIssuedDist::7                   4617595      0.15%     99.70% # Number of insts issued each cycle (Count)
system.cpu.numIssuedDist::8                   9157870      0.30%    100.00% # Number of insts issued each cycle (Count)
system.cpu.numIssuedDist::overflows                 0      0.00%    100.00% # Number of insts issued each cycle (Count)
system.cpu.numIssuedDist::min_value                 0                       # Number of insts issued each cycle (Count)
system.cpu.numIssuedDist::max_value                 8                       # Number of insts issued each cycle (Count)
system.cpu.numIssuedDist::total            3019887393                       # Number of insts issued each cycle (Count)
system.cpu.statFuBusy::No_OpClass                   0      0.00%      0.00% # attempts to use FU when none available (Count)
system.cpu.statFuBusy::IntAlu                   64637      0.45%      0.45% # attempts to use FU when none available (Count)
system.cpu.statFuBusy::IntMult                      0      0.00%      0.45% # attempts to use FU when none available (Count)
system.cpu.statFuBusy::IntDiv                       0      0.00%      0.45% # attempts to use FU when none available (Count)
system.cpu.statFuBusy::FloatAdd                     0      0.00%      0.45% # attempts to use FU when none available (Count)
system.cpu.statFuBusy::FloatCmp                     0      0.00%      0.45% # attempts to use FU when none available (Count)
system.cpu.statFuBusy::FloatCvt                     0      0.00%      0.45% # attempts to use FU when none available (Count)
system.cpu.statFuBusy::FloatMult                    0      0.00%      0.45% # attempts to use FU when none available (Count)
system.cpu.statFuBusy::FloatMultAcc                 0      0.00%      0.45% # attempts to use FU when none available (Count)
system.cpu.statFuBusy::FloatDiv                     0      0.00%      0.45% # attempts to use FU when none available (Count)
system.cpu.statFuBusy::FloatMisc                    0      0.00%      0.45% # attempts to use FU when none available (Count)
system.cpu.statFuBusy::FloatSqrt                    0      0.00%      0.45% # attempts to use FU when none available (Count)
system.cpu.statFuBusy::SimdAdd                      0      0.00%      0.45% # attempts to use FU when none available (Count)
system.cpu.statFuBusy::SimdAddAcc                   0      0.00%      0.45% # attempts to use FU when none available (Count)
system.cpu.statFuBusy::SimdAlu                     20      0.00%      0.45% # attempts to use FU when none available (Count)
system.cpu.statFuBusy::SimdCmp                      0      0.00%      0.45% # attempts to use FU when none available (Count)
system.cpu.statFuBusy::SimdCvt                     39      0.00%      0.45% # attempts to use FU when none available (Count)
system.cpu.statFuBusy::SimdMisc                     5      0.00%      0.45% # attempts to use FU when none available (Count)
system.cpu.statFuBusy::SimdMult                     0      0.00%      0.45% # attempts to use FU when none available (Count)
system.cpu.statFuBusy::SimdMultAcc                  0      0.00%      0.45% # attempts to use FU when none available (Count)
system.cpu.statFuBusy::SimdMatMultAcc               0      0.00%      0.45% # attempts to use FU when none available (Count)
system.cpu.statFuBusy::SimdShift                    0      0.00%      0.45% # attempts to use FU when none available (Count)
system.cpu.statFuBusy::SimdShiftAcc                 0      0.00%      0.45% # attempts to use FU when none available (Count)
system.cpu.statFuBusy::SimdDiv                      0      0.00%      0.45% # attempts to use FU when none available (Count)
system.cpu.statFuBusy::SimdSqrt                     0      0.00%      0.45% # attempts to use FU when none available (Count)
system.cpu.statFuBusy::SimdFloatAdd                 0      0.00%      0.45% # attempts to use FU when none available (Count)
system.cpu.statFuBusy::SimdFloatAlu                 0      0.00%      0.45% # attempts to use FU when none available (Count)
system.cpu.statFuBusy::SimdFloatCmp                 0      0.00%      0.45% # attempts to use FU when none available (Count)
system.cpu.statFuBusy::SimdFloatCvt                 0      0.00%      0.45% # attempts to use FU when none available (Count)
system.cpu.statFuBusy::SimdFloatDiv                 0      0.00%      0.45% # attempts to use FU when none available (Count)
system.cpu.statFuBusy::SimdFloatMisc                0      0.00%      0.45% # attempts to use FU when none available (Count)
system.cpu.statFuBusy::SimdFloatMult                0      0.00%      0.45% # attempts to use FU when none available (Count)
system.cpu.statFuBusy::SimdFloatMultAcc             0      0.00%      0.45% # attempts to use FU when none available (Count)
system.cpu.statFuBusy::SimdFloatMatMultAcc            0      0.00%      0.45% # attempts to use FU when none available (Count)
system.cpu.statFuBusy::SimdFloatSqrt                0      0.00%      0.45% # attempts to use FU when none available (Count)
system.cpu.statFuBusy::SimdReduceAdd                0      0.00%      0.45% # attempts to use FU when none available (Count)
system.cpu.statFuBusy::SimdReduceAlu                0      0.00%      0.45% # attempts to use FU when none available (Count)
system.cpu.statFuBusy::SimdReduceCmp                0      0.00%      0.45% # attempts to use FU when none available (Count)
system.cpu.statFuBusy::SimdFloatReduceAdd            0      0.00%      0.45% # attempts to use FU when none available (Count)
system.cpu.statFuBusy::SimdFloatReduceCmp            0      0.00%      0.45% # attempts to use FU when none available (Count)
system.cpu.statFuBusy::SimdAes                      0      0.00%      0.45% # attempts to use FU when none available (Count)
system.cpu.statFuBusy::SimdAesMix                   0      0.00%      0.45% # attempts to use FU when none available (Count)
system.cpu.statFuBusy::SimdSha1Hash                 0      0.00%      0.45% # attempts to use FU when none available (Count)
system.cpu.statFuBusy::SimdSha1Hash2                0      0.00%      0.45% # attempts to use FU when none available (Count)
system.cpu.statFuBusy::SimdSha256Hash               0      0.00%      0.45% # attempts to use FU when none available (Count)
system.cpu.statFuBusy::SimdSha256Hash2              0      0.00%      0.45% # attempts to use FU when none available (Count)
system.cpu.statFuBusy::SimdShaSigma2                0      0.00%      0.45% # attempts to use FU when none available (Count)
system.cpu.statFuBusy::SimdShaSigma3                0      0.00%      0.45% # attempts to use FU when none available (Count)
system.cpu.statFuBusy::SimdPredAlu                  0      0.00%      0.45% # attempts to use FU when none available (Count)
system.cpu.statFuBusy::Matrix                       0      0.00%      0.45% # attempts to use FU when none available (Count)
system.cpu.statFuBusy::MatrixMov                    0      0.00%      0.45% # attempts to use FU when none available (Count)
system.cpu.statFuBusy::MatrixOP                     0      0.00%      0.45% # attempts to use FU when none available (Count)
system.cpu.statFuBusy::MemRead               12450319     85.73%     86.17% # attempts to use FU when none available (Count)
system.cpu.statFuBusy::MemWrite               2008133     13.83%    100.00% # attempts to use FU when none available (Count)
system.cpu.statFuBusy::FloatMemRead                13      0.00%    100.00% # attempts to use FU when none available (Count)
system.cpu.statFuBusy::FloatMemWrite               11      0.00%    100.00% # attempts to use FU when none available (Count)
system.cpu.statFuBusy::IprAccess                    0      0.00%    100.00% # attempts to use FU when none available (Count)
system.cpu.statFuBusy::InstPrefetch                 0      0.00%    100.00% # attempts to use FU when none available (Count)
system.cpu.statFuBusy::VectorUnitStrideLoad            0      0.00%    100.00% # attempts to use FU when none available (Count)
system.cpu.statFuBusy::VectorUnitStrideStore            0      0.00%    100.00% # attempts to use FU when none available (Count)
system.cpu.statFuBusy::VectorUnitStrideMaskLoad            0      0.00%    100.00% # attempts to use FU when none available (Count)
system.cpu.statFuBusy::VectorUnitStrideMaskStore            0      0.00%    100.00% # attempts to use FU when none available (Count)
system.cpu.statFuBusy::VectorStridedLoad            0      0.00%    100.00% # attempts to use FU when none available (Count)
system.cpu.statFuBusy::VectorStridedStore            0      0.00%    100.00% # attempts to use FU when none available (Count)
system.cpu.statFuBusy::VectorIndexedLoad            0      0.00%    100.00% # attempts to use FU when none available (Count)
system.cpu.statFuBusy::VectorIndexedStore            0      0.00%    100.00% # attempts to use FU when none available (Count)
system.cpu.statFuBusy::VectorUnitStrideFaultOnlyFirstLoad            0      0.00%    100.00% # attempts to use FU when none available (Count)
system.cpu.statFuBusy::VectorWholeRegisterLoad            0      0.00%    100.00% # attempts to use FU when none available (Count)
system.cpu.statFuBusy::VectorWholeRegisterStore            0      0.00%    100.00% # attempts to use FU when none available (Count)
system.cpu.statFuBusy::VectorIntegerArith            0      0.00%    100.00% # attempts to use FU when none available (Count)
system.cpu.statFuBusy::VectorFloatArith             0      0.00%    100.00% # attempts to use FU when none available (Count)
system.cpu.statFuBusy::VectorFloatConvert            0      0.00%    100.00% # attempts to use FU when none available (Count)
system.cpu.statFuBusy::VectorIntegerReduce            0      0.00%    100.00% # attempts to use FU when none available (Count)
system.cpu.statFuBusy::VectorFloatReduce            0      0.00%    100.00% # attempts to use FU when none available (Count)
system.cpu.statFuBusy::VectorMisc                   0      0.00%    100.00% # attempts to use FU when none available (Count)
system.cpu.statFuBusy::VectorIntegerExtension            0      0.00%    100.00% # attempts to use FU when none available (Count)
system.cpu.statFuBusy::VectorConfig                 0      0.00%    100.00% # attempts to use FU when none available (Count)
system.cpu.statIssuedInstType_0::No_OpClass         1313      0.00%      0.00% # Number of instructions issued per FU type, per thread (Count)
system.cpu.statIssuedInstType_0::IntAlu    1857381164     71.69%     71.69% # Number of instructions issued per FU type, per thread (Count)
system.cpu.statIssuedInstType_0::IntMult     10765349      0.42%     72.10% # Number of instructions issued per FU type, per thread (Count)
system.cpu.statIssuedInstType_0::IntDiv        541173      0.02%     72.12% # Number of instructions issued per FU type, per thread (Count)
system.cpu.statIssuedInstType_0::FloatAdd          352      0.00%     72.12% # Number of instructions issued per FU type, per thread (Count)
system.cpu.statIssuedInstType_0::FloatCmp            0      0.00%     72.12% # Number of instructions issued per FU type, per thread (Count)
system.cpu.statIssuedInstType_0::FloatCvt            0      0.00%     72.12% # Number of instructions issued per FU type, per thread (Count)
system.cpu.statIssuedInstType_0::FloatMult            0      0.00%     72.12% # Number of instructions issued per FU type, per thread (Count)
system.cpu.statIssuedInstType_0::FloatMultAcc            0      0.00%     72.12% # Number of instructions issued per FU type, per thread (Count)
system.cpu.statIssuedInstType_0::FloatDiv            0      0.00%     72.12% # Number of instructions issued per FU type, per thread (Count)
system.cpu.statIssuedInstType_0::FloatMisc            0      0.00%     72.12% # Number of instructions issued per FU type, per thread (Count)
system.cpu.statIssuedInstType_0::FloatSqrt            0      0.00%     72.12% # Number of instructions issued per FU type, per thread (Count)
system.cpu.statIssuedInstType_0::SimdAdd            0      0.00%     72.12% # Number of instructions issued per FU type, per thread (Count)
system.cpu.statIssuedInstType_0::SimdAddAcc            0      0.00%     72.12% # Number of instructions issued per FU type, per thread (Count)
system.cpu.statIssuedInstType_0::SimdAlu         1831      0.00%     72.12% # Number of instructions issued per FU type, per thread (Count)
system.cpu.statIssuedInstType_0::SimdCmp            6      0.00%     72.12% # Number of instructions issued per FU type, per thread (Count)
system.cpu.statIssuedInstType_0::SimdCvt         2203      0.00%     72.12% # Number of instructions issued per FU type, per thread (Count)
system.cpu.statIssuedInstType_0::SimdMisc         3522      0.00%     72.12% # Number of instructions issued per FU type, per thread (Count)
system.cpu.statIssuedInstType_0::SimdMult            0      0.00%     72.12% # Number of instructions issued per FU type, per thread (Count)
system.cpu.statIssuedInstType_0::SimdMultAcc            0      0.00%     72.12% # Number of instructions issued per FU type, per thread (Count)
system.cpu.statIssuedInstType_0::SimdMatMultAcc            0      0.00%     72.12% # Number of instructions issued per FU type, per thread (Count)
system.cpu.statIssuedInstType_0::SimdShift            0      0.00%     72.12% # Number of instructions issued per FU type, per thread (Count)
system.cpu.statIssuedInstType_0::SimdShiftAcc            0      0.00%     72.12% # Number of instructions issued per FU type, per thread (Count)
system.cpu.statIssuedInstType_0::SimdDiv            0      0.00%     72.12% # Number of instructions issued per FU type, per thread (Count)
system.cpu.statIssuedInstType_0::SimdSqrt            0      0.00%     72.12% # Number of instructions issued per FU type, per thread (Count)
system.cpu.statIssuedInstType_0::SimdFloatAdd            0      0.00%     72.12% # Number of instructions issued per FU type, per thread (Count)
system.cpu.statIssuedInstType_0::SimdFloatAlu            0      0.00%     72.12% # Number of instructions issued per FU type, per thread (Count)
system.cpu.statIssuedInstType_0::SimdFloatCmp            0      0.00%     72.12% # Number of instructions issued per FU type, per thread (Count)
system.cpu.statIssuedInstType_0::SimdFloatCvt            0      0.00%     72.12% # Number of instructions issued per FU type, per thread (Count)
system.cpu.statIssuedInstType_0::SimdFloatDiv            0      0.00%     72.12% # Number of instructions issued per FU type, per thread (Count)
system.cpu.statIssuedInstType_0::SimdFloatMisc            0      0.00%     72.12% # Number of instructions issued per FU type, per thread (Count)
system.cpu.statIssuedInstType_0::SimdFloatMult            0      0.00%     72.12% # Number of instructions issued per FU type, per thread (Count)
system.cpu.statIssuedInstType_0::SimdFloatMultAcc            0      0.00%     72.12% # Number of instructions issued per FU type, per thread (Count)
system.cpu.statIssuedInstType_0::SimdFloatMatMultAcc            0      0.00%     72.12% # Number of instructions issued per FU type, per thread (Count)
system.cpu.statIssuedInstType_0::SimdFloatSqrt            0      0.00%     72.12% # Number of instructions issued per FU type, per thread (Count)
system.cpu.statIssuedInstType_0::SimdReduceAdd            0      0.00%     72.12% # Number of instructions issued per FU type, per thread (Count)
system.cpu.statIssuedInstType_0::SimdReduceAlu            0      0.00%     72.12% # Number of instructions issued per FU type, per thread (Count)
system.cpu.statIssuedInstType_0::SimdReduceCmp            0      0.00%     72.12% # Number of instructions issued per FU type, per thread (Count)
system.cpu.statIssuedInstType_0::SimdFloatReduceAdd            0      0.00%     72.12% # Number of instructions issued per FU type, per thread (Count)
system.cpu.statIssuedInstType_0::SimdFloatReduceCmp            0      0.00%     72.12% # Number of instructions issued per FU type, per thread (Count)
system.cpu.statIssuedInstType_0::SimdAes            0      0.00%     72.12% # Number of instructions issued per FU type, per thread (Count)
system.cpu.statIssuedInstType_0::SimdAesMix            0      0.00%     72.12% # Number of instructions issued per FU type, per thread (Count)
system.cpu.statIssuedInstType_0::SimdSha1Hash            0      0.00%     72.12% # Number of instructions issued per FU type, per thread (Count)
system.cpu.statIssuedInstType_0::SimdSha1Hash2            0      0.00%     72.12% # Number of instructions issued per FU type, per thread (Count)
system.cpu.statIssuedInstType_0::SimdSha256Hash            0      0.00%     72.12% # Number of instructions issued per FU type, per thread (Count)
system.cpu.statIssuedInstType_0::SimdSha256Hash2            0      0.00%     72.12% # Number of instructions issued per FU type, per thread (Count)
system.cpu.statIssuedInstType_0::SimdShaSigma2            0      0.00%     72.12% # Number of instructions issued per FU type, per thread (Count)
system.cpu.statIssuedInstType_0::SimdShaSigma3            0      0.00%     72.12% # Number of instructions issued per FU type, per thread (Count)
system.cpu.statIssuedInstType_0::SimdPredAlu            0      0.00%     72.12% # Number of instructions issued per FU type, per thread (Count)
system.cpu.statIssuedInstType_0::Matrix             0      0.00%     72.12% # Number of instructions issued per FU type, per thread (Count)
system.cpu.statIssuedInstType_0::MatrixMov            0      0.00%     72.12% # Number of instructions issued per FU type, per thread (Count)
system.cpu.statIssuedInstType_0::MatrixOP            0      0.00%     72.12% # Number of instructions issued per FU type, per thread (Count)
system.cpu.statIssuedInstType_0::MemRead    477262732     18.42%     90.54% # Number of instructions issued per FU type, per thread (Count)
system.cpu.statIssuedInstType_0::MemWrite    244991732      9.46%    100.00% # Number of instructions issued per FU type, per thread (Count)
system.cpu.statIssuedInstType_0::FloatMemRead         1236      0.00%    100.00% # Number of instructions issued per FU type, per thread (Count)
system.cpu.statIssuedInstType_0::FloatMemWrite          191      0.00%    100.00% # Number of instructions issued per FU type, per thread (Count)
system.cpu.statIssuedInstType_0::IprAccess            0      0.00%    100.00% # Number of instructions issued per FU type, per thread (Count)
system.cpu.statIssuedInstType_0::InstPrefetch            0      0.00%    100.00% # Number of instructions issued per FU type, per thread (Count)
system.cpu.statIssuedInstType_0::VectorUnitStrideLoad            0      0.00%    100.00% # Number of instructions issued per FU type, per thread (Count)
system.cpu.statIssuedInstType_0::VectorUnitStrideStore            0      0.00%    100.00% # Number of instructions issued per FU type, per thread (Count)
system.cpu.statIssuedInstType_0::VectorUnitStrideMaskLoad            0      0.00%    100.00% # Number of instructions issued per FU type, per thread (Count)
system.cpu.statIssuedInstType_0::VectorUnitStrideMaskStore            0      0.00%    100.00% # Number of instructions issued per FU type, per thread (Count)
system.cpu.statIssuedInstType_0::VectorStridedLoad            0      0.00%    100.00% # Number of instructions issued per FU type, per thread (Count)
system.cpu.statIssuedInstType_0::VectorStridedStore            0      0.00%    100.00% # Number of instructions issued per FU type, per thread (Count)
system.cpu.statIssuedInstType_0::VectorIndexedLoad            0      0.00%    100.00% # Number of instructions issued per FU type, per thread (Count)
system.cpu.statIssuedInstType_0::VectorIndexedStore            0      0.00%    100.00% # Number of instructions issued per FU type, per thread (Count)
system.cpu.statIssuedInstType_0::VectorUnitStrideFaultOnlyFirstLoad            0      0.00%    100.00% # Number of instructions issued per FU type, per thread (Count)
system.cpu.statIssuedInstType_0::VectorWholeRegisterLoad            0      0.00%    100.00% # Number of instructions issued per FU type, per thread (Count)
system.cpu.statIssuedInstType_0::VectorWholeRegisterStore            0      0.00%    100.00% # Number of instructions issued per FU type, per thread (Count)
system.cpu.statIssuedInstType_0::VectorIntegerArith            0      0.00%    100.00% # Number of instructions issued per FU type, per thread (Count)
system.cpu.statIssuedInstType_0::VectorFloatArith            0      0.00%    100.00% # Number of instructions issued per FU type, per thread (Count)
system.cpu.statIssuedInstType_0::VectorFloatConvert            0      0.00%    100.00% # Number of instructions issued per FU type, per thread (Count)
system.cpu.statIssuedInstType_0::VectorIntegerReduce            0      0.00%    100.00% # Number of instructions issued per FU type, per thread (Count)
system.cpu.statIssuedInstType_0::VectorFloatReduce            0      0.00%    100.00% # Number of instructions issued per FU type, per thread (Count)
system.cpu.statIssuedInstType_0::VectorMisc            0      0.00%    100.00% # Number of instructions issued per FU type, per thread (Count)
system.cpu.statIssuedInstType_0::VectorIntegerExtension            0      0.00%    100.00% # Number of instructions issued per FU type, per thread (Count)
system.cpu.statIssuedInstType_0::VectorConfig            0      0.00%    100.00% # Number of instructions issued per FU type, per thread (Count)
system.cpu.statIssuedInstType_0::total     2590952804                       # Number of instructions issued per FU type, per thread (Count)
system.cpu.issueRate                         0.857955                       # Inst issue rate ((Count/Cycle))
system.cpu.fuBusy                            14523177                       # FU busy when requested (Count)
system.cpu.fuBusyRate                        0.005605                       # FU busy rate (busy events/executed inst) ((Count/Count))
system.cpu.intInstQueueReads               8216309865                       # Number of integer instruction queue reads (Count)
system.cpu.intInstQueueWrites              4536410823                       # Number of integer instruction queue writes (Count)
system.cpu.intInstQueueWakeupAccesses      2570634844                       # Number of integer instruction queue wakeup accesses (Count)
system.cpu.fpInstQueueReads                     21558                       # Number of floating instruction queue reads (Count)
system.cpu.fpInstQueueWrites                    12976                       # Number of floating instruction queue writes (Count)
system.cpu.fpInstQueueWakeupAccesses            10586                       # Number of floating instruction queue wakeup accesses (Count)
system.cpu.vecInstQueueReads                        0                       # Number of vector instruction queue reads (Count)
system.cpu.vecInstQueueWrites                       0                       # Number of vector instruction queue writes (Count)
system.cpu.vecInstQueueWakeupAccesses               0                       # Number of vector instruction queue wakeup accesses (Count)
system.cpu.intAluAccesses                  2605463885                       # Number of integer alu accesses (Count)
system.cpu.fpAluAccesses                        10783                       # Number of floating point alu accesses (Count)
system.cpu.vecAluAccesses                           0                       # Number of vector alu accesses (Count)
system.cpu.numSquashedInsts                   3750301                       # Number of squashed instructions skipped in execute (Count)
system.cpu.numSwp                                   0                       # Number of swp insts executed (Count)
system.cpu.timesIdled                            1021                       # Number of times that the entire CPU went into an idle state and unscheduled itself (Count)
system.cpu.idleCycles                           27874                       # Total number of cycles that the CPU has spent unscheduled due to idling (Cycle)
system.cpu.MemDepUnit__0.insertedLoads      662211320                       # Number of loads inserted to the mem dependence unit. (Count)
system.cpu.MemDepUnit__0.insertedStores     384758345                       # Number of stores inserted to the mem dependence unit. (Count)
system.cpu.MemDepUnit__0.conflictingLoads    585794096                       # Number of conflicting loads. (Count)
system.cpu.MemDepUnit__0.conflictingStores    294700210                       # Number of conflicting stores. (Count)
system.cpu.MemDepUnit__1.insertedLoads              0                       # Number of loads inserted to the mem dependence unit. (Count)
system.cpu.MemDepUnit__1.insertedStores             0                       # Number of stores inserted to the mem dependence unit. (Count)
system.cpu.MemDepUnit__1.conflictingLoads            0                       # Number of conflicting loads. (Count)
system.cpu.MemDepUnit__1.conflictingStores            0                       # Number of conflicting stores. (Count)
system.cpu.MemDepUnit__2.insertedLoads              0                       # Number of loads inserted to the mem dependence unit. (Count)
system.cpu.MemDepUnit__2.insertedStores             0                       # Number of stores inserted to the mem dependence unit. (Count)
system.cpu.MemDepUnit__2.conflictingLoads            0                       # Number of conflicting loads. (Count)
system.cpu.MemDepUnit__2.conflictingStores            0                       # Number of conflicting stores. (Count)
system.cpu.MemDepUnit__3.insertedLoads              0                       # Number of loads inserted to the mem dependence unit. (Count)
system.cpu.MemDepUnit__3.insertedStores             0                       # Number of stores inserted to the mem dependence unit. (Count)
system.cpu.MemDepUnit__3.conflictingLoads            0                       # Number of conflicting loads. (Count)
system.cpu.MemDepUnit__3.conflictingStores            0                       # Number of conflicting stores. (Count)
system.cpu.branchPred.lookups               290821894                       # Number of BP lookups (Count)
system.cpu.branchPred.condPredicted         275222893                       # Number of conditional branches predicted (Count)
system.cpu.branchPred.condIncorrect           3325693                       # Number of conditional branches incorrect (Count)
system.cpu.branchPred.BTBLookups            258097904                       # Number of BTB lookups (Count)
system.cpu.branchPred.BTBUpdates              2122110                       # Number of BTB updates (Count)
system.cpu.branchPred.BTBHits               258097249                       # Number of BTB hits (Count)
system.cpu.branchPred.BTBHitRatio            0.999997                       # BTB Hit Ratio (Ratio)
system.cpu.branchPred.RASUsed                 2115760                       # Number of times the RAS was used to get a target. (Count)
system.cpu.branchPred.RASIncorrect                  3                       # Number of incorrect RAS predictions. (Count)
system.cpu.branchPred.indirectLookups            1557                       # Number of indirect predictor lookups. (Count)
system.cpu.branchPred.indirectHits               1049                       # Number of indirect target hits. (Count)
system.cpu.branchPred.indirectMisses              508                       # Number of indirect misses. (Count)
system.cpu.branchPred.indirectMispredicted          185                       # Number of mispredicted indirect branches. (Count)
system.cpu.commit.commitSquashedInsts      1198207290                       # The number of squashed insts skipped by commit (Count)
system.cpu.commit.commitNonSpecStalls        26733000                       # The number of times commit has been forced to stall to communicate backwards (Count)
system.cpu.commit.branchMispredicts           3325101                       # The number of times a branch was mispredicted (Count)
system.cpu.commit.numCommittedDist::samples   2862524742                       # Number of insts commited each cycle (Count)
system.cpu.commit.numCommittedDist::mean     0.741591                       # Number of insts commited each cycle (Count)
system.cpu.commit.numCommittedDist::stdev     1.520862                       # Number of insts commited each cycle (Count)
system.cpu.commit.numCommittedDist::underflows            0      0.00%      0.00% # Number of insts commited each cycle (Count)
system.cpu.commit.numCommittedDist::0      2045528739     71.46%     71.46% # Number of insts commited each cycle (Count)
system.cpu.commit.numCommittedDist::1       298642780     10.43%     81.89% # Number of insts commited each cycle (Count)
system.cpu.commit.numCommittedDist::2       183639729      6.42%     88.31% # Number of insts commited each cycle (Count)
system.cpu.commit.numCommittedDist::3       164372186      5.74%     94.05% # Number of insts commited each cycle (Count)
system.cpu.commit.numCommittedDist::4         5192879      0.18%     94.23% # Number of insts commited each cycle (Count)
system.cpu.commit.numCommittedDist::5       111073093      3.88%     98.11% # Number of insts commited each cycle (Count)
system.cpu.commit.numCommittedDist::6        18202070      0.64%     98.75% # Number of insts commited each cycle (Count)
system.cpu.commit.numCommittedDist::7         8551873      0.30%     99.05% # Number of insts commited each cycle (Count)
system.cpu.commit.numCommittedDist::8        27321393      0.95%    100.00% # Number of insts commited each cycle (Count)
system.cpu.commit.numCommittedDist::overflows            0      0.00%    100.00% # Number of insts commited each cycle (Count)
system.cpu.commit.numCommittedDist::min_value            0                       # Number of insts commited each cycle (Count)
system.cpu.commit.numCommittedDist::max_value            8                       # Number of insts commited each cycle (Count)
system.cpu.commit.numCommittedDist::total   2862524742                       # Number of insts commited each cycle (Count)
system.cpu.commit.amos                              0                       # Number of atomic instructions committed (Count)
system.cpu.commit.membars                    26733000                       # Number of memory barriers committed (Count)
system.cpu.commit.functionCalls               1007190                       # Number of function calls committed. (Count)
system.cpu.commit.committedInstType_0::No_OpClass          651      0.00%      0.00% # Class of committed instruction (Count)
system.cpu.commit.committedInstType_0::IntAlu   1467732718     69.14%     69.14% # Class of committed instruction (Count)
system.cpu.commit.committedInstType_0::IntMult      9581049      0.45%     69.59% # Class of committed instruction (Count)
system.cpu.commit.committedInstType_0::IntDiv       469259      0.02%     69.61% # Class of committed instruction (Count)
system.cpu.commit.committedInstType_0::FloatAdd          336      0.00%     69.61% # Class of committed instruction (Count)
system.cpu.commit.committedInstType_0::FloatCmp            0      0.00%     69.61% # Class of committed instruction (Count)
system.cpu.commit.committedInstType_0::FloatCvt            0      0.00%     69.61% # Class of committed instruction (Count)
system.cpu.commit.committedInstType_0::FloatMult            0      0.00%     69.61% # Class of committed instruction (Count)
system.cpu.commit.committedInstType_0::FloatMultAcc            0      0.00%     69.61% # Class of committed instruction (Count)
system.cpu.commit.committedInstType_0::FloatDiv            0      0.00%     69.61% # Class of committed instruction (Count)
system.cpu.commit.committedInstType_0::FloatMisc            0      0.00%     69.61% # Class of committed instruction (Count)
system.cpu.commit.committedInstType_0::FloatSqrt            0      0.00%     69.61% # Class of committed instruction (Count)
system.cpu.commit.committedInstType_0::SimdAdd            0      0.00%     69.61% # Class of committed instruction (Count)
system.cpu.commit.committedInstType_0::SimdAddAcc            0      0.00%     69.61% # Class of committed instruction (Count)
system.cpu.commit.committedInstType_0::SimdAlu         1686      0.00%     69.61% # Class of committed instruction (Count)
system.cpu.commit.committedInstType_0::SimdCmp            6      0.00%     69.61% # Class of committed instruction (Count)
system.cpu.commit.committedInstType_0::SimdCvt         1936      0.00%     69.61% # Class of committed instruction (Count)
system.cpu.commit.committedInstType_0::SimdMisc         3356      0.00%     69.61% # Class of committed instruction (Count)
system.cpu.commit.committedInstType_0::SimdMult            0      0.00%     69.61% # Class of committed instruction (Count)
system.cpu.commit.committedInstType_0::SimdMultAcc            0      0.00%     69.61% # Class of committed instruction (Count)
system.cpu.commit.committedInstType_0::SimdMatMultAcc            0      0.00%     69.61% # Class of committed instruction (Count)
system.cpu.commit.committedInstType_0::SimdShift            0      0.00%     69.61% # Class of committed instruction (Count)
system.cpu.commit.committedInstType_0::SimdShiftAcc            0      0.00%     69.61% # Class of committed instruction (Count)
system.cpu.commit.committedInstType_0::SimdDiv            0      0.00%     69.61% # Class of committed instruction (Count)
system.cpu.commit.committedInstType_0::SimdSqrt            0      0.00%     69.61% # Class of committed instruction (Count)
system.cpu.commit.committedInstType_0::SimdFloatAdd            0      0.00%     69.61% # Class of committed instruction (Count)
system.cpu.commit.committedInstType_0::SimdFloatAlu            0      0.00%     69.61% # Class of committed instruction (Count)
system.cpu.commit.committedInstType_0::SimdFloatCmp            0      0.00%     69.61% # Class of committed instruction (Count)
system.cpu.commit.committedInstType_0::SimdFloatCvt            0      0.00%     69.61% # Class of committed instruction (Count)
system.cpu.commit.committedInstType_0::SimdFloatDiv            0      0.00%     69.61% # Class of committed instruction (Count)
system.cpu.commit.committedInstType_0::SimdFloatMisc            0      0.00%     69.61% # Class of committed instruction (Count)
system.cpu.commit.committedInstType_0::SimdFloatMult            0      0.00%     69.61% # Class of committed instruction (Count)
system.cpu.commit.committedInstType_0::SimdFloatMultAcc            0      0.00%     69.61% # Class of committed instruction (Count)
system.cpu.commit.committedInstType_0::SimdFloatMatMultAcc            0      0.00%     69.61% # Class of committed instruction (Count)
system.cpu.commit.committedInstType_0::SimdFloatSqrt            0      0.00%     69.61% # Class of committed instruction (Count)
system.cpu.commit.committedInstType_0::SimdReduceAdd            0      0.00%     69.61% # Class of committed instruction (Count)
system.cpu.commit.committedInstType_0::SimdReduceAlu            0      0.00%     69.61% # Class of committed instruction (Count)
system.cpu.commit.committedInstType_0::SimdReduceCmp            0      0.00%     69.61% # Class of committed instruction (Count)
system.cpu.commit.committedInstType_0::SimdFloatReduceAdd            0      0.00%     69.61% # Class of committed instruction (Count)
system.cpu.commit.committedInstType_0::SimdFloatReduceCmp            0      0.00%     69.61% # Class of committed instruction (Count)
system.cpu.commit.committedInstType_0::SimdAes            0      0.00%     69.61% # Class of committed instruction (Count)
system.cpu.commit.committedInstType_0::SimdAesMix            0      0.00%     69.61% # Class of committed instruction (Count)
system.cpu.commit.committedInstType_0::SimdSha1Hash            0      0.00%     69.61% # Class of committed instruction (Count)
system.cpu.commit.committedInstType_0::SimdSha1Hash2            0      0.00%     69.61% # Class of committed instruction (Count)
system.cpu.commit.committedInstType_0::SimdSha256Hash            0      0.00%     69.61% # Class of committed instruction (Count)
system.cpu.commit.committedInstType_0::SimdSha256Hash2            0      0.00%     69.61% # Class of committed instruction (Count)
system.cpu.commit.committedInstType_0::SimdShaSigma2            0      0.00%     69.61% # Class of committed instruction (Count)
system.cpu.commit.committedInstType_0::SimdShaSigma3            0      0.00%     69.61% # Class of committed instruction (Count)
system.cpu.commit.committedInstType_0::SimdPredAlu            0      0.00%     69.61% # Class of committed instruction (Count)
system.cpu.commit.committedInstType_0::Matrix            0      0.00%     69.61% # Class of committed instruction (Count)
system.cpu.commit.committedInstType_0::MatrixMov            0      0.00%     69.61% # Class of committed instruction (Count)
system.cpu.commit.committedInstType_0::MatrixOP            0      0.00%     69.61% # Class of committed instruction (Count)
system.cpu.commit.committedInstType_0::MemRead    413986975     19.50%     89.12% # Class of committed instruction (Count)
system.cpu.commit.committedInstType_0::MemWrite    231043322     10.88%    100.00% # Class of committed instruction (Count)
system.cpu.commit.committedInstType_0::FloatMemRead          998      0.00%    100.00% # Class of committed instruction (Count)
system.cpu.commit.committedInstType_0::FloatMemWrite          160      0.00%    100.00% # Class of committed instruction (Count)
system.cpu.commit.committedInstType_0::IprAccess            0      0.00%    100.00% # Class of committed instruction (Count)
system.cpu.commit.committedInstType_0::InstPrefetch            0      0.00%    100.00% # Class of committed instruction (Count)
system.cpu.commit.committedInstType_0::VectorUnitStrideLoad            0      0.00%    100.00% # Class of committed instruction (Count)
system.cpu.commit.committedInstType_0::VectorUnitStrideStore            0      0.00%    100.00% # Class of committed instruction (Count)
system.cpu.commit.committedInstType_0::VectorUnitStrideMaskLoad            0      0.00%    100.00% # Class of committed instruction (Count)
system.cpu.commit.committedInstType_0::VectorUnitStrideMaskStore            0      0.00%    100.00% # Class of committed instruction (Count)
system.cpu.commit.committedInstType_0::VectorStridedLoad            0      0.00%    100.00% # Class of committed instruction (Count)
system.cpu.commit.committedInstType_0::VectorStridedStore            0      0.00%    100.00% # Class of committed instruction (Count)
system.cpu.commit.committedInstType_0::VectorIndexedLoad            0      0.00%    100.00% # Class of committed instruction (Count)
system.cpu.commit.committedInstType_0::VectorIndexedStore            0      0.00%    100.00% # Class of committed instruction (Count)
system.cpu.commit.committedInstType_0::VectorUnitStrideFaultOnlyFirstLoad            0      0.00%    100.00% # Class of committed instruction (Count)
system.cpu.commit.committedInstType_0::VectorWholeRegisterLoad            0      0.00%    100.00% # Class of committed instruction (Count)
system.cpu.commit.committedInstType_0::VectorWholeRegisterStore            0      0.00%    100.00% # Class of committed instruction (Count)
system.cpu.commit.committedInstType_0::VectorIntegerArith            0      0.00%    100.00% # Class of committed instruction (Count)
system.cpu.commit.committedInstType_0::VectorFloatArith            0      0.00%    100.00% # Class of committed instruction (Count)
system.cpu.commit.committedInstType_0::VectorFloatConvert            0      0.00%    100.00% # Class of committed instruction (Count)
system.cpu.commit.committedInstType_0::VectorIntegerReduce            0      0.00%    100.00% # Class of committed instruction (Count)
system.cpu.commit.committedInstType_0::VectorFloatReduce            0      0.00%    100.00% # Class of committed instruction (Count)
system.cpu.commit.committedInstType_0::VectorMisc            0      0.00%    100.00% # Class of committed instruction (Count)
system.cpu.commit.committedInstType_0::VectorIntegerExtension            0      0.00%    100.00% # Class of committed instruction (Count)
system.cpu.commit.committedInstType_0::VectorConfig            0      0.00%    100.00% # Class of committed instruction (Count)
system.cpu.commit.committedInstType_0::total   2122822452                       # Class of committed instruction (Count)
system.cpu.commit.commitEligibleSamples      27321393                       # number cycles where commit BW limit reached (Cycle)
system.cpu.commitStats0.numInsts           1244611903                       # Number of instructions committed (thread level) (Count)
system.cpu.commitStats0.numOps             2122822452                       # Number of ops (including micro ops) committed (thread level) (Count)
system.cpu.commitStats0.numInstsNotNOP     1244611903                       # Number of instructions committed excluding NOPs or prefetches (Count)
system.cpu.commitStats0.numOpsNotNOP       2122822452                       # Number of Ops (including micro ops) Simulated (Count)
system.cpu.commitStats0.cpi                  2.426391                       # CPI: cycles per instruction (thread level) ((Cycle/Count))
system.cpu.commitStats0.ipc                  0.412135                       # IPC: instructions per cycle (thread level) ((Count/Cycle))
system.cpu.commitStats0.numMemRefs          645031455                       # Number of memory references committed (Count)
system.cpu.commitStats0.numFpInsts               9664                       # Number of float instructions (Count)
system.cpu.commitStats0.numIntInsts        2096013894                       # Number of integer instructions (Count)
system.cpu.commitStats0.numLoadInsts        413987973                       # Number of load instructions (Count)
system.cpu.commitStats0.numStoreInsts       231043482                       # Number of store instructions (Count)
system.cpu.commitStats0.numVecInsts                 0                       # Number of vector instructions (Count)
system.cpu.commitStats0.committedInstType::No_OpClass          651      0.00%      0.00% # Class of committed instruction. (Count)
system.cpu.commitStats0.committedInstType::IntAlu   1467732718     69.14%     69.14% # Class of committed instruction. (Count)
system.cpu.commitStats0.committedInstType::IntMult      9581049      0.45%     69.59% # Class of committed instruction. (Count)
system.cpu.commitStats0.committedInstType::IntDiv       469259      0.02%     69.61% # Class of committed instruction. (Count)
system.cpu.commitStats0.committedInstType::FloatAdd          336      0.00%     69.61% # Class of committed instruction. (Count)
system.cpu.commitStats0.committedInstType::FloatCmp            0      0.00%     69.61% # Class of committed instruction. (Count)
system.cpu.commitStats0.committedInstType::FloatCvt            0      0.00%     69.61% # Class of committed instruction. (Count)
system.cpu.commitStats0.committedInstType::FloatMult            0      0.00%     69.61% # Class of committed instruction. (Count)
system.cpu.commitStats0.committedInstType::FloatMultAcc            0      0.00%     69.61% # Class of committed instruction. (Count)
system.cpu.commitStats0.committedInstType::FloatDiv            0      0.00%     69.61% # Class of committed instruction. (Count)
system.cpu.commitStats0.committedInstType::FloatMisc            0      0.00%     69.61% # Class of committed instruction. (Count)
system.cpu.commitStats0.committedInstType::FloatSqrt            0      0.00%     69.61% # Class of committed instruction. (Count)
system.cpu.commitStats0.committedInstType::SimdAdd            0      0.00%     69.61% # Class of committed instruction. (Count)
system.cpu.commitStats0.committedInstType::SimdAddAcc            0      0.00%     69.61% # Class of committed instruction. (Count)
system.cpu.commitStats0.committedInstType::SimdAlu         1686      0.00%     69.61% # Class of committed instruction. (Count)
system.cpu.commitStats0.committedInstType::SimdCmp            6      0.00%     69.61% # Class of committed instruction. (Count)
system.cpu.commitStats0.committedInstType::SimdCvt         1936      0.00%     69.61% # Class of committed instruction. (Count)
system.cpu.commitStats0.committedInstType::SimdMisc         3356      0.00%     69.61% # Class of committed instruction. (Count)
system.cpu.commitStats0.committedInstType::SimdMult            0      0.00%     69.61% # Class of committed instruction. (Count)
system.cpu.commitStats0.committedInstType::SimdMultAcc            0      0.00%     69.61% # Class of committed instruction. (Count)
system.cpu.commitStats0.committedInstType::SimdMatMultAcc            0      0.00%     69.61% # Class of committed instruction. (Count)
system.cpu.commitStats0.committedInstType::SimdShift            0      0.00%     69.61% # Class of committed instruction. (Count)
system.cpu.commitStats0.committedInstType::SimdShiftAcc            0      0.00%     69.61% # Class of committed instruction. (Count)
system.cpu.commitStats0.committedInstType::SimdDiv            0      0.00%     69.61% # Class of committed instruction. (Count)
system.cpu.commitStats0.committedInstType::SimdSqrt            0      0.00%     69.61% # Class of committed instruction. (Count)
system.cpu.commitStats0.committedInstType::SimdFloatAdd            0      0.00%     69.61% # Class of committed instruction. (Count)
system.cpu.commitStats0.committedInstType::SimdFloatAlu            0      0.00%     69.61% # Class of committed instruction. (Count)
system.cpu.commitStats0.committedInstType::SimdFloatCmp            0      0.00%     69.61% # Class of committed instruction. (Count)
system.cpu.commitStats0.committedInstType::SimdFloatCvt            0      0.00%     69.61% # Class of committed instruction. (Count)
system.cpu.commitStats0.committedInstType::SimdFloatDiv            0      0.00%     69.61% # Class of committed instruction. (Count)
system.cpu.commitStats0.committedInstType::SimdFloatMisc            0      0.00%     69.61% # Class of committed instruction. (Count)
system.cpu.commitStats0.committedInstType::SimdFloatMult            0      0.00%     69.61% # Class of committed instruction. (Count)
system.cpu.commitStats0.committedInstType::SimdFloatMultAcc            0      0.00%     69.61% # Class of committed instruction. (Count)
system.cpu.commitStats0.committedInstType::SimdFloatMatMultAcc            0      0.00%     69.61% # Class of committed instruction. (Count)
system.cpu.commitStats0.committedInstType::SimdFloatSqrt            0      0.00%     69.61% # Class of committed instruction. (Count)
system.cpu.commitStats0.committedInstType::SimdReduceAdd            0      0.00%     69.61% # Class of committed instruction. (Count)
system.cpu.commitStats0.committedInstType::SimdReduceAlu            0      0.00%     69.61% # Class of committed instruction. (Count)
system.cpu.commitStats0.committedInstType::SimdReduceCmp            0      0.00%     69.61% # Class of committed instruction. (Count)
system.cpu.commitStats0.committedInstType::SimdFloatReduceAdd            0      0.00%     69.61% # Class of committed instruction. (Count)
system.cpu.commitStats0.committedInstType::SimdFloatReduceCmp            0      0.00%     69.61% # Class of committed instruction. (Count)
system.cpu.commitStats0.committedInstType::SimdAes            0      0.00%     69.61% # Class of committed instruction. (Count)
system.cpu.commitStats0.committedInstType::SimdAesMix            0      0.00%     69.61% # Class of committed instruction. (Count)
system.cpu.commitStats0.committedInstType::SimdSha1Hash            0      0.00%     69.61% # Class of committed instruction. (Count)
system.cpu.commitStats0.committedInstType::SimdSha1Hash2            0      0.00%     69.61% # Class of committed instruction. (Count)
system.cpu.commitStats0.committedInstType::SimdSha256Hash            0      0.00%     69.61% # Class of committed instruction. (Count)
system.cpu.commitStats0.committedInstType::SimdSha256Hash2            0      0.00%     69.61% # Class of committed instruction. (Count)
system.cpu.commitStats0.committedInstType::SimdShaSigma2            0      0.00%     69.61% # Class of committed instruction. (Count)
system.cpu.commitStats0.committedInstType::SimdShaSigma3            0      0.00%     69.61% # Class of committed instruction. (Count)
system.cpu.commitStats0.committedInstType::SimdPredAlu            0      0.00%     69.61% # Class of committed instruction. (Count)
system.cpu.commitStats0.committedInstType::Matrix            0      0.00%     69.61% # Class of committed instruction. (Count)
system.cpu.commitStats0.committedInstType::MatrixMov            0      0.00%     69.61% # Class of committed instruction. (Count)
system.cpu.commitStats0.committedInstType::MatrixOP            0      0.00%     69.61% # Class of committed instruction. (Count)
system.cpu.commitStats0.committedInstType::MemRead    413986975     19.50%     89.12% # Class of committed instruction. (Count)
system.cpu.commitStats0.committedInstType::MemWrite    231043322     10.88%    100.00% # Class of committed instruction. (Count)
system.cpu.commitStats0.committedInstType::FloatMemRead          998      0.00%    100.00% # Class of committed instruction. (Count)
system.cpu.commitStats0.committedInstType::FloatMemWrite          160      0.00%    100.00% # Class of committed instruction. (Count)
system.cpu.commitStats0.committedInstType::IprAccess            0      0.00%    100.00% # Class of committed instruction. (Count)
system.cpu.commitStats0.committedInstType::InstPrefetch            0      0.00%    100.00% # Class of committed instruction. (Count)
system.cpu.commitStats0.committedInstType::VectorUnitStrideLoad            0      0.00%    100.00% # Class of committed instruction. (Count)
system.cpu.commitStats0.committedInstType::VectorUnitStrideStore            0      0.00%    100.00% # Class of committed instruction. (Count)
system.cpu.commitStats0.committedInstType::VectorUnitStrideMaskLoad            0      0.00%    100.00% # Class of committed instruction. (Count)
system.cpu.commitStats0.committedInstType::VectorUnitStrideMaskStore            0      0.00%    100.00% # Class of committed instruction. (Count)
system.cpu.commitStats0.committedInstType::VectorStridedLoad            0      0.00%    100.00% # Class of committed instruction. (Count)
system.cpu.commitStats0.committedInstType::VectorStridedStore            0      0.00%    100.00% # Class of committed instruction. (Count)
system.cpu.commitStats0.committedInstType::VectorIndexedLoad            0      0.00%    100.00% # Class of committed instruction. (Count)
system.cpu.commitStats0.committedInstType::VectorIndexedStore            0      0.00%    100.00% # Class of committed instruction. (Count)
system.cpu.commitStats0.committedInstType::VectorUnitStrideFaultOnlyFirstLoad            0      0.00%    100.00% # Class of committed instruction. (Count)
system.cpu.commitStats0.committedInstType::VectorWholeRegisterLoad            0      0.00%    100.00% # Class of committed instruction. (Count)
system.cpu.commitStats0.committedInstType::VectorWholeRegisterStore            0      0.00%    100.00% # Class of committed instruction. (Count)
system.cpu.commitStats0.committedInstType::VectorIntegerArith            0      0.00%    100.00% # Class of committed instruction. (Count)
system.cpu.commitStats0.committedInstType::VectorFloatArith            0      0.00%    100.00% # Class of committed instruction. (Count)
system.cpu.commitStats0.committedInstType::VectorFloatConvert            0      0.00%    100.00% # Class of committed instruction. (Count)
system.cpu.commitStats0.committedInstType::VectorIntegerReduce            0      0.00%    100.00% # Class of committed instruction. (Count)
system.cpu.commitStats0.committedInstType::VectorFloatReduce            0      0.00%    100.00% # Class of committed instruction. (Count)
system.cpu.commitStats0.committedInstType::VectorMisc            0      0.00%    100.00% # Class of committed instruction. (Count)
system.cpu.commitStats0.committedInstType::VectorIntegerExtension            0      0.00%    100.00% # Class of committed instruction. (Count)
system.cpu.commitStats0.committedInstType::VectorConfig            0      0.00%    100.00% # Class of committed instruction. (Count)
system.cpu.commitStats0.committedInstType::total   2122822452                       # Class of committed instruction. (Count)
system.cpu.commitStats0.committedControl::IsControl    168152712                       # Class of control type instructions committed (Count)
system.cpu.commitStats0.committedControl::IsDirectControl    167144483                       # Class of control type instructions committed (Count)
system.cpu.commitStats0.committedControl::IsIndirectControl      1008229                       # Class of control type instructions committed (Count)
system.cpu.commitStats0.committedControl::IsCondControl    157402478                       # Class of control type instructions committed (Count)
system.cpu.commitStats0.committedControl::IsUncondControl     10750234                       # Class of control type instructions committed (Count)
system.cpu.commitStats0.committedControl::IsCall      1007190                       # Class of control type instructions committed (Count)
system.cpu.commitStats0.committedControl::IsReturn      1007185                       # Class of control type instructions committed (Count)
system.cpu.dcache.demandHits::cpu.data      405625806                       # number of demand (read+write) hits (Count)
system.cpu.dcache.demandHits::total         405625806                       # number of demand (read+write) hits (Count)
system.cpu.dcache.overallHits::cpu.data     405625806                       # number of overall hits (Count)
system.cpu.dcache.overallHits::total        405625806                       # number of overall hits (Count)
system.cpu.dcache.demandMisses::cpu.data      9920687                       # number of demand (read+write) misses (Count)
system.cpu.dcache.demandMisses::total         9920687                       # number of demand (read+write) misses (Count)
system.cpu.dcache.overallMisses::cpu.data      9920687                       # number of overall misses (Count)
system.cpu.dcache.overallMisses::total        9920687                       # number of overall misses (Count)
system.cpu.dcache.demandMissLatency::cpu.data 943681428000                       # number of demand (read+write) miss ticks (Tick)
system.cpu.dcache.demandMissLatency::total 943681428000                       # number of demand (read+write) miss ticks (Tick)
system.cpu.dcache.overallMissLatency::cpu.data 943681428000                       # number of overall miss ticks (Tick)
system.cpu.dcache.overallMissLatency::total 943681428000                       # number of overall miss ticks (Tick)
system.cpu.dcache.demandAccesses::cpu.data    415546493                       # number of demand (read+write) accesses (Count)
system.cpu.dcache.demandAccesses::total     415546493                       # number of demand (read+write) accesses (Count)
system.cpu.dcache.overallAccesses::cpu.data    415546493                       # number of overall (read+write) accesses (Count)
system.cpu.dcache.overallAccesses::total    415546493                       # number of overall (read+write) accesses (Count)
system.cpu.dcache.demandMissRate::cpu.data     0.023874                       # miss rate for demand accesses (Ratio)
system.cpu.dcache.demandMissRate::total      0.023874                       # miss rate for demand accesses (Ratio)
system.cpu.dcache.overallMissRate::cpu.data     0.023874                       # miss rate for overall accesses (Ratio)
system.cpu.dcache.overallMissRate::total     0.023874                       # miss rate for overall accesses (Ratio)
system.cpu.dcache.demandAvgMissLatency::cpu.data 95122.588587                       # average overall miss latency in ticks ((Tick/Count))
system.cpu.dcache.demandAvgMissLatency::total 95122.588587                       # average overall miss latency in ticks ((Tick/Count))
system.cpu.dcache.overallAvgMissLatency::cpu.data 95122.588587                       # average overall miss latency ((Tick/Count))
system.cpu.dcache.overallAvgMissLatency::total 95122.588587                       # average overall miss latency ((Tick/Count))
system.cpu.dcache.blockedCycles::no_mshrs          101                       # number of cycles access was blocked (Cycle)
system.cpu.dcache.blockedCycles::no_targets            0                       # number of cycles access was blocked (Cycle)
system.cpu.dcache.blockedCauses::no_mshrs            4                       # number of times access was blocked (Count)
system.cpu.dcache.blockedCauses::no_targets            0                       # number of times access was blocked (Count)
system.cpu.dcache.avgBlocked::no_mshrs      25.250000                       # average number of cycles each access was blocked ((Cycle/Count))
system.cpu.dcache.avgBlocked::no_targets          nan                       # average number of cycles each access was blocked ((Cycle/Count))
system.cpu.dcache.writebacks::writebacks       101816                       # number of writebacks (Count)
system.cpu.dcache.writebacks::total            101816                       # number of writebacks (Count)
system.cpu.dcache.demandMshrHits::cpu.data       224137                       # number of demand (read+write) MSHR hits (Count)
system.cpu.dcache.demandMshrHits::total        224137                       # number of demand (read+write) MSHR hits (Count)
system.cpu.dcache.overallMshrHits::cpu.data       224137                       # number of overall MSHR hits (Count)
system.cpu.dcache.overallMshrHits::total       224137                       # number of overall MSHR hits (Count)
system.cpu.dcache.demandMshrMisses::cpu.data      9696550                       # number of demand (read+write) MSHR misses (Count)
system.cpu.dcache.demandMshrMisses::total      9696550                       # number of demand (read+write) MSHR misses (Count)
system.cpu.dcache.overallMshrMisses::cpu.data      9696550                       # number of overall MSHR misses (Count)
system.cpu.dcache.overallMshrMisses::total      9696550                       # number of overall MSHR misses (Count)
system.cpu.dcache.demandMshrMissLatency::cpu.data 921859980000                       # number of demand (read+write) MSHR miss ticks (Tick)
system.cpu.dcache.demandMshrMissLatency::total 921859980000                       # number of demand (read+write) MSHR miss ticks (Tick)
system.cpu.dcache.overallMshrMissLatency::cpu.data 921859980000                       # number of overall MSHR miss ticks (Tick)
system.cpu.dcache.overallMshrMissLatency::total 921859980000                       # number of overall MSHR miss ticks (Tick)
system.cpu.dcache.demandMshrMissRate::cpu.data     0.023334                       # mshr miss ratio for demand accesses (Ratio)
system.cpu.dcache.demandMshrMissRate::total     0.023334                       # mshr miss ratio for demand accesses (Ratio)
system.cpu.dcache.overallMshrMissRate::cpu.data     0.023334                       # mshr miss ratio for overall accesses (Ratio)
system.cpu.dcache.overallMshrMissRate::total     0.023334                       # mshr miss ratio for overall accesses (Ratio)
system.cpu.dcache.demandAvgMshrMissLatency::cpu.data 95070.925226                       # average overall mshr miss latency ((Tick/Count))
system.cpu.dcache.demandAvgMshrMissLatency::total 95070.925226                       # average overall mshr miss latency ((Tick/Count))
system.cpu.dcache.overallAvgMshrMissLatency::cpu.data 95070.925226                       # average overall mshr miss latency ((Tick/Count))
system.cpu.dcache.overallAvgMshrMissLatency::total 95070.925226                       # average overall mshr miss latency ((Tick/Count))
system.cpu.dcache.replacements                4503145                       # number of replacements (Count)
system.cpu.dcache.CleanInvalidReq.missLatency::cpu.data 280389135000                       # number of CleanInvalidReq miss ticks (Tick)
system.cpu.dcache.CleanInvalidReq.missLatency::total 280389135000                       # number of CleanInvalidReq miss ticks (Tick)
system.cpu.dcache.CleanInvalidReq.avgMissLatency::cpu.data          inf                       # average CleanInvalidReq miss latency ((Tick/Count))
system.cpu.dcache.CleanInvalidReq.avgMissLatency::total          inf                       # average CleanInvalidReq miss latency ((Tick/Count))
system.cpu.dcache.CleanInvalidReq.mshrMisses::cpu.data      9581000                       # number of CleanInvalidReq MSHR misses (Count)
system.cpu.dcache.CleanInvalidReq.mshrMisses::total      9581000                       # number of CleanInvalidReq MSHR misses (Count)
system.cpu.dcache.CleanInvalidReq.mshrMissLatency::cpu.data 498212615000                       # number of CleanInvalidReq MSHR miss ticks (Tick)
system.cpu.dcache.CleanInvalidReq.mshrMissLatency::total 498212615000                       # number of CleanInvalidReq MSHR miss ticks (Tick)
system.cpu.dcache.CleanInvalidReq.mshrMissRate::cpu.data          inf                       # mshr miss rate for CleanInvalidReq accesses (Ratio)
system.cpu.dcache.CleanInvalidReq.mshrMissRate::total          inf                       # mshr miss rate for CleanInvalidReq accesses (Ratio)
system.cpu.dcache.CleanInvalidReq.avgMshrMissLatency::cpu.data 52000.064190                       # average CleanInvalidReq mshr miss latency ((Tick/Count))
system.cpu.dcache.CleanInvalidReq.avgMshrMissLatency::total 52000.064190                       # average CleanInvalidReq mshr miss latency ((Tick/Count))
system.cpu.dcache.ReadReq.hits::cpu.data    184165506                       # number of ReadReq hits (Count)
system.cpu.dcache.ReadReq.hits::total       184165506                       # number of ReadReq hits (Count)
system.cpu.dcache.ReadReq.misses::cpu.data      9918462                       # number of ReadReq misses (Count)
system.cpu.dcache.ReadReq.misses::total       9918462                       # number of ReadReq misses (Count)
system.cpu.dcache.ReadReq.missLatency::cpu.data 943461755000                       # number of ReadReq miss ticks (Tick)
system.cpu.dcache.ReadReq.missLatency::total 943461755000                       # number of ReadReq miss ticks (Tick)
system.cpu.dcache.ReadReq.accesses::cpu.data    194083968                       # number of ReadReq accesses(hits+misses) (Count)
system.cpu.dcache.ReadReq.accesses::total    194083968                       # number of ReadReq accesses(hits+misses) (Count)
system.cpu.dcache.ReadReq.missRate::cpu.data     0.051104                       # miss rate for ReadReq accesses (Ratio)
system.cpu.dcache.ReadReq.missRate::total     0.051104                       # miss rate for ReadReq accesses (Ratio)
system.cpu.dcache.ReadReq.avgMissLatency::cpu.data 95121.779465                       # average ReadReq miss latency ((Tick/Count))
system.cpu.dcache.ReadReq.avgMissLatency::total 95121.779465                       # average ReadReq miss latency ((Tick/Count))
system.cpu.dcache.ReadReq.mshrHits::cpu.data       224134                       # number of ReadReq MSHR hits (Count)
system.cpu.dcache.ReadReq.mshrHits::total       224134                       # number of ReadReq MSHR hits (Count)
system.cpu.dcache.ReadReq.mshrMisses::cpu.data      9694328                       # number of ReadReq MSHR misses (Count)
system.cpu.dcache.ReadReq.mshrMisses::total      9694328                       # number of ReadReq MSHR misses (Count)
system.cpu.dcache.ReadReq.mshrMissLatency::cpu.data 921645050000                       # number of ReadReq MSHR miss ticks (Tick)
system.cpu.dcache.ReadReq.mshrMissLatency::total 921645050000                       # number of ReadReq MSHR miss ticks (Tick)
system.cpu.dcache.ReadReq.mshrMissRate::cpu.data     0.049949                       # mshr miss rate for ReadReq accesses (Ratio)
system.cpu.dcache.ReadReq.mshrMissRate::total     0.049949                       # mshr miss rate for ReadReq accesses (Ratio)
system.cpu.dcache.ReadReq.avgMshrMissLatency::cpu.data 95070.545375                       # average ReadReq mshr miss latency ((Tick/Count))
system.cpu.dcache.ReadReq.avgMshrMissLatency::total 95070.545375                       # average ReadReq mshr miss latency ((Tick/Count))
system.cpu.dcache.WriteReq.hits::cpu.data    221460300                       # number of WriteReq hits (Count)
system.cpu.dcache.WriteReq.hits::total      221460300                       # number of WriteReq hits (Count)
system.cpu.dcache.WriteReq.misses::cpu.data         2225                       # number of WriteReq misses (Count)
system.cpu.dcache.WriteReq.misses::total         2225                       # number of WriteReq misses (Count)
system.cpu.dcache.WriteReq.missLatency::cpu.data    219673000                       # number of WriteReq miss ticks (Tick)
system.cpu.dcache.WriteReq.missLatency::total    219673000                       # number of WriteReq miss ticks (Tick)
system.cpu.dcache.WriteReq.accesses::cpu.data    221462525                       # number of WriteReq accesses(hits+misses) (Count)
system.cpu.dcache.WriteReq.accesses::total    221462525                       # number of WriteReq accesses(hits+misses) (Count)
system.cpu.dcache.WriteReq.missRate::cpu.data     0.000010                       # miss rate for WriteReq accesses (Ratio)
system.cpu.dcache.WriteReq.missRate::total     0.000010                       # miss rate for WriteReq accesses (Ratio)
system.cpu.dcache.WriteReq.avgMissLatency::cpu.data 98729.438202                       # average WriteReq miss latency ((Tick/Count))
system.cpu.dcache.WriteReq.avgMissLatency::total 98729.438202                       # average WriteReq miss latency ((Tick/Count))
system.cpu.dcache.WriteReq.mshrHits::cpu.data            3                       # number of WriteReq MSHR hits (Count)
system.cpu.dcache.WriteReq.mshrHits::total            3                       # number of WriteReq MSHR hits (Count)
system.cpu.dcache.WriteReq.mshrMisses::cpu.data         2222                       # number of WriteReq MSHR misses (Count)
system.cpu.dcache.WriteReq.mshrMisses::total         2222                       # number of WriteReq MSHR misses (Count)
system.cpu.dcache.WriteReq.mshrMissLatency::cpu.data    214930000                       # number of WriteReq MSHR miss ticks (Tick)
system.cpu.dcache.WriteReq.mshrMissLatency::total    214930000                       # number of WriteReq MSHR miss ticks (Tick)
system.cpu.dcache.WriteReq.mshrMissRate::cpu.data     0.000010                       # mshr miss rate for WriteReq accesses (Ratio)
system.cpu.dcache.WriteReq.mshrMissRate::total     0.000010                       # mshr miss rate for WriteReq accesses (Ratio)
system.cpu.dcache.WriteReq.avgMshrMissLatency::cpu.data 96728.172817                       # average WriteReq mshr miss latency ((Tick/Count))
system.cpu.dcache.WriteReq.avgMshrMissLatency::total 96728.172817                       # average WriteReq mshr miss latency ((Tick/Count))
system.cpu.dcache.power_state.pwrStateResidencyTicks::UNDEFINED 3019915266000                       # Cumulative time (in ticks) in various power states (Tick)
system.cpu.dcache.tags.tagsInUse           968.310891                       # Average ticks per tags in use ((Tick/Count))
system.cpu.dcache.tags.totalRefs            420514735                       # Total number of references to valid blocks. (Count)
system.cpu.dcache.tags.sampledRefs            9696549                       # Sample count of references to valid blocks. (Count)
system.cpu.dcache.tags.avgRefs              43.367464                       # Average number of references to valid blocks. ((Count/Count))
system.cpu.dcache.tags.warmupTick              222000                       # The tick when the warmup percentage was hit. (Tick)
system.cpu.dcache.tags.occupancies::cpu.data   968.310891                       # Average occupied blocks per tick, per requestor ((Count/Tick))
system.cpu.dcache.tags.avgOccs::cpu.data     0.945616                       # Average percentage of cache occupancy ((Ratio/Tick))
system.cpu.dcache.tags.avgOccs::total        0.945616                       # Average percentage of cache occupancy ((Ratio/Tick))
system.cpu.dcache.tags.occupanciesTaskId::1024         1024                       # Occupied blocks per task id (Count)
system.cpu.dcache.tags.ageTaskId_1024::0           24                       # Occupied blocks per task id, per block age (Count)
system.cpu.dcache.tags.ageTaskId_1024::1          121                       # Occupied blocks per task id, per block age (Count)
system.cpu.dcache.tags.ageTaskId_1024::4          879                       # Occupied blocks per task id, per block age (Count)
system.cpu.dcache.tags.ratioOccsTaskId::1024            1                       # Ratio of occupied blocks and all blocks, per task id (Ratio)
system.cpu.dcache.tags.tagAccesses          859951535                       # Number of tag accesses (Count)
system.cpu.dcache.tags.dataAccesses         859951535                       # Number of data accesses (Count)
system.cpu.dcache.tags.power_state.pwrStateResidencyTicks::UNDEFINED 3019915266000                       # Cumulative time (in ticks) in various power states (Tick)
system.cpu.decode.idleCycles                204934016                       # Number of cycles decode is idle (Cycle)
system.cpu.decode.blockedCycles            2294371766                       # Number of cycles decode is blocked (Cycle)
system.cpu.decode.runCycles                 279859222                       # Number of cycles decode is running (Cycle)
system.cpu.decode.unblockCycles             220221145                       # Number of cycles decode is unblocking (Cycle)
system.cpu.decode.squashCycles               20501244                       # Number of cycles decode is squashing (Cycle)
system.cpu.decode.branchResolved            217670445                       # Number of times decode resolved a branch (Count)
system.cpu.decode.branchMispred                   725                       # Number of times decode detected a branch misprediction (Count)
system.cpu.decode.decodedInsts             3567670725                       # Number of instructions handled by decode (Count)
system.cpu.decode.squashedInsts                  2767                       # Number of squashed instructions handled by decode (Count)
system.cpu.executeStats0.numInsts          2587202497                       # Number of executed instructions (Count)
system.cpu.executeStats0.numNop                     0                       # Number of nop insts executed (Count)
system.cpu.executeStats0.numBranches        188098726                       # Number of branches executed (Count)
system.cpu.executeStats0.numLoadInsts       477090460                       # Number of load instructions executed (Count)
system.cpu.executeStats0.numStoreInsts      244941990                       # Number of stores executed (Count)
system.cpu.executeStats0.instRate            0.856714                       # Inst execution rate ((Count/Cycle))
system.cpu.executeStats0.numCCRegReads      949528847                       # Number of times the CC registers were read (Count)
system.cpu.executeStats0.numCCRegWrites     850243007                       # Number of times the CC registers were written (Count)
system.cpu.executeStats0.numFpRegReads          19482                       # Number of times the floating registers were read (Count)
system.cpu.executeStats0.numFpRegWrites          9363                       # Number of times the floating registers were written (Count)
system.cpu.executeStats0.numIntRegReads    2655586142                       # Number of times the integer registers were read (Count)
system.cpu.executeStats0.numIntRegWrites   1952040221                       # Number of times the integer registers were written (Count)
system.cpu.executeStats0.numMemRefs         722032450                       # Number of memory refs (Count)
system.cpu.executeStats0.numMiscRegReads   1192847161                       # Number of times the Misc registers were read (Count)
system.cpu.executeStats0.numVecAluAccesses            0                       # Number of vector alu accesses (Count)
system.cpu.executeStats0.numDiscardedOps            0                       # Number of ops (including micro ops) which were discarded before commit (Count)
system.cpu.fetch.predictedBranches          260214058                       # Number of branches that fetch has predicted taken (Count)
system.cpu.fetch.cycles                    2744248386                       # Number of cycles fetch has run and was not squashing or blocked (Cycle)
system.cpu.fetch.squashCycles                41003914                       # Number of cycles fetch has spent squashing (Cycle)
system.cpu.fetch.miscStallCycles                  112                       # Number of cycles fetch has spent waiting on interrupts, or bad addresses, or out of MSHRs (Cycle)
system.cpu.fetch.pendingTrapStallCycles          1408                       # Number of stall cycles due to pending traps (Cycle)
system.cpu.fetch.cacheLines                 262400224                       # Number of cache lines fetched (Count)
system.cpu.fetch.icacheSquashes               8668776                       # Number of outstanding Icache misses that were squashed (Count)
system.cpu.fetch.nisnDist::samples         3019887393                       # Number of instructions fetched each cycle (Total) (Count)
system.cpu.fetch.nisnDist::mean              1.427771                       # Number of instructions fetched each cycle (Total) (Count)
system.cpu.fetch.nisnDist::stdev             2.798895                       # Number of instructions fetched each cycle (Total) (Count)
system.cpu.fetch.nisnDist::underflows               0      0.00%      0.00% # Number of instructions fetched each cycle (Total) (Count)
system.cpu.fetch.nisnDist::0               2258822031     74.80%     74.80% # Number of instructions fetched each cycle (Total) (Count)
system.cpu.fetch.nisnDist::1                 24655763      0.82%     75.61% # Number of instructions fetched each cycle (Total) (Count)
system.cpu.fetch.nisnDist::2                152476227      5.05%     80.66% # Number of instructions fetched each cycle (Total) (Count)
system.cpu.fetch.nisnDist::3                 65049086      2.15%     82.82% # Number of instructions fetched each cycle (Total) (Count)
system.cpu.fetch.nisnDist::4                 52304641      1.73%     84.55% # Number of instructions fetched each cycle (Total) (Count)
[...]
system.mem_ctrl.dram.numReads::cpu.inst           583                       # Number of read requests responded to by this memory (Count)
system.mem_ctrl.dram.numReads::cpu.data       9583285                       # Number of read requests responded to by this memory (Count)
system.mem_ctrl.dram.numReads::total          9583868                       # Number of read requests responded to by this memory (Count)
system.mem_ctrl.dram.numWrites::writebacks          257                       # Number of write requests responded to by this memory (Count)
system.mem_ctrl.dram.numWrites::total             257                       # Number of write requests responded to by this memory (Count)
system.mem_ctrl.dram.bwRead::cpu.inst           12355                       # Total read bandwidth from this memory ((Byte/Second))
system.mem_ctrl.dram.bwRead::cpu.data       203095182                       # Total read bandwidth from this memory ((Byte/Second))
system.mem_ctrl.dram.bwRead::total          203107537                       # Total read bandwidth from this memory ((Byte/Second))
system.mem_ctrl.dram.bwInstRead::cpu.inst        12355                       # Instruction read bandwidth from this memory ((Byte/Second))
system.mem_ctrl.dram.bwInstRead::total          12355                       # Instruction read bandwidth from this memory ((Byte/Second))
system.mem_ctrl.dram.bwWrite::writebacks         5447                       # Write bandwidth from this memory ((Byte/Second))
system.mem_ctrl.dram.bwWrite::total              5447                       # Write bandwidth from this memory ((Byte/Second))
system.mem_ctrl.dram.bwTotal::writebacks         5447                       # Total bandwidth to/from this memory ((Byte/Second))
system.mem_ctrl.dram.bwTotal::cpu.inst          12355                       # Total bandwidth to/from this memory ((Byte/Second))
system.mem_ctrl.dram.bwTotal::cpu.data      203095182                       # Total bandwidth to/from this memory ((Byte/Second))
system.mem_ctrl.dram.bwTotal::total         203112984                       # Total bandwidth to/from this memory ((Byte/Second))
system.mem_ctrl.dram.readBursts               7841868                       # Number of DRAM read bursts (Count)
system.mem_ctrl.dram.writeBursts                  234                       # Number of DRAM write bursts (Count)
system.mem_ctrl.dram.perBankRdBursts::0        536222                       # Per bank write bursts (Count)
system.mem_ctrl.dram.perBankRdBursts::1        536153                       # Per bank write bursts (Count)
system.mem_ctrl.dram.perBankRdBursts::2        536189                       # Per bank write bursts (Count)
system.mem_ctrl.dram.perBankRdBursts::3        536152                       # Per bank write bursts (Count)
system.mem_ctrl.dram.perBankRdBursts::4        536128                       # Per bank write bursts (Count)
system.mem_ctrl.dram.perBankRdBursts::5        536139                       # Per bank write bursts (Count)
system.mem_ctrl.dram.perBankRdBursts::6         67228                       # Per bank write bursts (Count)
system.mem_ctrl.dram.perBankRdBursts::7        268180                       # Per bank write bursts (Count)
system.mem_ctrl.dram.perBankRdBursts::8        536179                       # Per bank write bursts (Count)
system.mem_ctrl.dram.perBankRdBursts::9        536181                       # Per bank write bursts (Count)
system.mem_ctrl.dram.perBankRdBursts::10       536229                       # Per bank write bursts (Count)
system.mem_ctrl.dram.perBankRdBursts::11       536213                       # Per bank write bursts (Count)
system.mem_ctrl.dram.perBankRdBursts::12       536154                       # Per bank write bursts (Count)
system.mem_ctrl.dram.perBankRdBursts::13       536178                       # Per bank write bursts (Count)
system.mem_ctrl.dram.perBankRdBursts::14       536163                       # Per bank write bursts (Count)
system.mem_ctrl.dram.perBankRdBursts::15       536180                       # Per bank write bursts (Count)
system.mem_ctrl.dram.perBankWrBursts::0            16                       # Per bank write bursts (Count)
system.mem_ctrl.dram.perBankWrBursts::1            16                       # Per bank write bursts (Count)
system.mem_ctrl.dram.perBankWrBursts::2            16                       # Per bank write bursts (Count)
system.mem_ctrl.dram.perBankWrBursts::3            16                       # Per bank write bursts (Count)
system.mem_ctrl.dram.perBankWrBursts::4            16                       # Per bank write bursts (Count)
system.mem_ctrl.dram.perBankWrBursts::5            16                       # Per bank write bursts (Count)
system.mem_ctrl.dram.perBankWrBursts::6             2                       # Per bank write bursts (Count)
system.mem_ctrl.dram.perBankWrBursts::7             8                       # Per bank write bursts (Count)
system.mem_ctrl.dram.perBankWrBursts::8            16                       # Per bank write bursts (Count)
system.mem_ctrl.dram.perBankWrBursts::9            16                       # Per bank write bursts (Count)
system.mem_ctrl.dram.perBankWrBursts::10           16                       # Per bank write bursts (Count)
system.mem_ctrl.dram.perBankWrBursts::11           16                       # Per bank write bursts (Count)
system.mem_ctrl.dram.perBankWrBursts::12           16                       # Per bank write bursts (Count)
system.mem_ctrl.dram.perBankWrBursts::13           16                       # Per bank write bursts (Count)
system.mem_ctrl.dram.perBankWrBursts::14           16                       # Per bank write bursts (Count)
system.mem_ctrl.dram.perBankWrBursts::15           16                       # Per bank write bursts (Count)
system.mem_ctrl.dram.totQLat              77655815500                       # Total ticks spent queuing (Tick)
system.mem_ctrl.dram.totBusLat            39209340000                       # Total ticks spent in databus transfers (Tick)
system.mem_ctrl.dram.totMemAccLat        224690840500                       # Total ticks spent from burst creation until serviced by the DRAM (Tick)
system.mem_ctrl.dram.avgQLat                  9902.72                       # Average queueing delay per DRAM burst ((Tick/Count))
system.mem_ctrl.dram.avgBusLat                5000.00                       # Average bus latency per DRAM burst ((Tick/Count))
system.mem_ctrl.dram.avgMemAccLat            28652.72                       # Average memory access latency per DRAM burst ((Tick/Count))
system.mem_ctrl.dram.readRowHits              4691869                       # Number of row buffer hits during reads (Count)
system.mem_ctrl.dram.writeRowHits                 215                       # Number of row buffer hits during writes (Count)
system.mem_ctrl.dram.readRowHitRate             59.83                       # Row buffer hit rate for reads (Ratio)
system.mem_ctrl.dram.writeRowHitRate            91.88                       # Row buffer hit rate for writes (Ratio)
system.mem_ctrl.dram.bytesPerActivate::samples      3150013                       # Bytes accessed per row activation (Byte)
system.mem_ctrl.dram.bytesPerActivate::mean   159.330796                       # Bytes accessed per row activation (Byte)
system.mem_ctrl.dram.bytesPerActivate::gmean   145.080146                       # Bytes accessed per row activation (Byte)
system.mem_ctrl.dram.bytesPerActivate::stdev    65.597141                       # Bytes accessed per row activation (Byte)
system.mem_ctrl.dram.bytesPerActivate::0-127       488878     15.52%     15.52% # Bytes accessed per row activation (Byte)
system.mem_ctrl.dram.bytesPerActivate::128-255      1900685     60.34%     75.86% # Bytes accessed per row activation (Byte)
system.mem_ctrl.dram.bytesPerActivate::256-383       760210     24.13%     99.99% # Bytes accessed per row activation (Byte)
system.mem_ctrl.dram.bytesPerActivate::384-511           96      0.00%    100.00% # Bytes accessed per row activation (Byte)
system.mem_ctrl.dram.bytesPerActivate::512-639            9      0.00%    100.00% # Bytes accessed per row activation (Byte)
system.mem_ctrl.dram.bytesPerActivate::640-767            9      0.00%    100.00% # Bytes accessed per row activation (Byte)
system.mem_ctrl.dram.bytesPerActivate::768-895            9      0.00%    100.00% # Bytes accessed per row activation (Byte)
system.mem_ctrl.dram.bytesPerActivate::896-1023            6      0.00%    100.00% # Bytes accessed per row activation (Byte)
system.mem_ctrl.dram.bytesPerActivate::1024-1151          111      0.00%    100.00% # Bytes accessed per row activation (Byte)
system.mem_ctrl.dram.bytesPerActivate::total      3150013                       # Bytes accessed per row activation (Byte)
system.mem_ctrl.dram.bytesRead              501879552                       # Total bytes read (Byte)
system.mem_ctrl.dram.bytesWritten               14976                       # Total bytes written (Byte)
system.mem_ctrl.dram.avgRdBW               166.189945                       # Average DRAM read bandwidth in MiBytes/s ((Byte/Second))
system.mem_ctrl.dram.avgWrBW                 0.004959                       # Average DRAM write bandwidth in MiBytes/s ((Byte/Second))
system.mem_ctrl.dram.peakBW                  12800.00                       # Theoretical peak bandwidth in MiByte/s ((Byte/Second))
system.mem_ctrl.dram.busUtil                     1.30                       # Data bus utilization in percentage (Ratio)
system.mem_ctrl.dram.busUtilRead                 1.30                       # Data bus utilization in percentage for reads (Ratio)
system.mem_ctrl.dram.busUtilWrite                0.00                       # Data bus utilization in percentage for writes (Ratio)
system.mem_ctrl.dram.pageHitRate                59.83                       # Row buffer hit rate, read and write combined (Ratio)
system.mem_ctrl.dram.power_state.pwrStateResidencyTicks::UNDEFINED 3019915266000                       # Cumulative time (in ticks) in various power states (Tick)
system.mem_ctrl.dram.rank0.actEnergy      10474044420                       # Energy for activate commands per rank (pJ) (Joule)
system.mem_ctrl.dram.rank0.preEnergy       5567079045                       # Energy for precharge commands per rank (pJ) (Joule)
system.mem_ctrl.dram.rank0.readEnergy     25364071740                       # Energy for read commands per rank (pJ) (Joule)
system.mem_ctrl.dram.rank0.writeEnergy         553320                       # Energy for write commands per rank (pJ) (Joule)
system.mem_ctrl.dram.rank0.refreshEnergy 238389353280.000031                       # Energy for refresh commands per rank (pJ) (Joule)
system.mem_ctrl.dram.rank0.actBackEnergy 765470332560                       # Energy for active background per rank (pJ) (Joule)
system.mem_ctrl.dram.rank0.preBackEnergy 515040866400                       # Energy for precharge background per rank (pJ) (Joule)
system.mem_ctrl.dram.rank0.actPowerDownEnergy            0                       # Energy for active power-down per rank (pJ) (Joule)
system.mem_ctrl.dram.rank0.prePowerDownEnergy            0                       # Energy for precharge power-down per rank (pJ) (Joule)
system.mem_ctrl.dram.rank0.selfRefreshEnergy            0                       # Energy for self refresh per rank (pJ) (Joule)
system.mem_ctrl.dram.rank0.totalEnergy   1560306300765                       # Total energy per rank (pJ) (Joule)
system.mem_ctrl.dram.rank0.averagePower    516.672212                       # Core power per rank (mW) (Watt)
system.mem_ctrl.dram.rank0.totalIdleTime            0                       # Total Idle time Per DRAM Rank (Tick)
system.mem_ctrl.dram.rank0.pwrStateTime::IDLE 1332622657000                       # Time in different power states (Tick)
system.mem_ctrl.dram.rank0.pwrStateTime::REF 100841520000                       # Time in different power states (Tick)
system.mem_ctrl.dram.rank0.pwrStateTime::SREF            0                       # Time in different power states (Tick)
system.mem_ctrl.dram.rank0.pwrStateTime::PRE_PDN            0                       # Time in different power states (Tick)
system.mem_ctrl.dram.rank0.pwrStateTime::ACT 1586451089000                       # Time in different power states (Tick)
system.mem_ctrl.dram.rank0.pwrStateTime::ACT_PDN            0                       # Time in different power states (Tick)
system.mem_ctrl.dram.rank1.actEnergy      12017084100                       # Energy for activate commands per rank (pJ) (Joule)
system.mem_ctrl.dram.rank1.preEnergy       6387220290                       # Energy for precharge commands per rank (pJ) (Joule)
system.mem_ctrl.dram.rank1.readEnergy     30626865780                       # Energy for read commands per rank (pJ) (Joule)
system.mem_ctrl.dram.rank1.writeEnergy         668160                       # Energy for write commands per rank (pJ) (Joule)
system.mem_ctrl.dram.rank1.refreshEnergy 238389353280.000031                       # Energy for refresh commands per rank (pJ) (Joule)
system.mem_ctrl.dram.rank1.actBackEnergy 771753072630                       # Energy for active background per rank (pJ) (Joule)
system.mem_ctrl.dram.rank1.preBackEnergy 509750137920                       # Energy for precharge background per rank (pJ) (Joule)
system.mem_ctrl.dram.rank1.actPowerDownEnergy            0                       # Energy for active power-down per rank (pJ) (Joule)
system.mem_ctrl.dram.rank1.prePowerDownEnergy            0                       # Energy for precharge power-down per rank (pJ) (Joule)
system.mem_ctrl.dram.rank1.selfRefreshEnergy            0                       # Energy for self refresh per rank (pJ) (Joule)
system.mem_ctrl.dram.rank1.totalEnergy   1568924402160                       # Total energy per rank (pJ) (Joule)
system.mem_ctrl.dram.rank1.averagePower    519.525968                       # Core power per rank (mW) (Watt)
system.mem_ctrl.dram.rank1.totalIdleTime            0                       # Total Idle time Per DRAM Rank (Tick)
system.mem_ctrl.dram.rank1.pwrStateTime::IDLE 1318764204500                       # Time in different power states (Tick)
system.mem_ctrl.dram.rank1.pwrStateTime::REF 100841520000                       # Time in different power states (Tick)
system.mem_ctrl.dram.rank1.pwrStateTime::SREF            0                       # Time in different power states (Tick)
system.mem_ctrl.dram.rank1.pwrStateTime::PRE_PDN            0                       # Time in different power states (Tick)
system.mem_ctrl.dram.rank1.pwrStateTime::ACT 1600309541500                       # Time in different power states (Tick)
system.mem_ctrl.dram.rank1.pwrStateTime::ACT_PDN            0                       # Time in different power states (Tick)
system.mem_ctrl.power_state.pwrStateResidencyTicks::UNDEFINED 3019915266000                       # Cumulative time (in ticks) in various power states (Tick)
system.membus.transDist::ReadResp             9581689                       # Transaction distribution (Count)
system.membus.transDist::WriteClean               257                       # Transaction distribution (Count)
system.membus.transDist::CleanEvict                 6                       # Transaction distribution (Count)
system.membus.transDist::ReadExReq               2178                       # Transaction distribution (Count)
system.membus.transDist::ReadExResp              2178                       # Transaction distribution (Count)
system.membus.transDist::ReadSharedReq        9581690                       # Transaction distribution (Count)
system.membus.transDist::CleanInvalidReq      9581000                       # Transaction distribution (Count)
system.membus.pktCount_system.l2cache.mem_side_port::system.mem_ctrl.port     28748998                       # Packet count per connected requestor and responder (Count)
system.membus.pktCount_system.l2cache.mem_side_port::total     28748998                       # Packet count per connected requestor and responder (Count)
system.membus.pktCount::total                28748998                       # Packet count per connected requestor and responder (Count)
system.membus.pktSize_system.l2cache.mem_side_port::system.mem_ctrl.port    613383936                       # Cumulative packet size per connected requestor and responder (Byte)
system.membus.pktSize_system.l2cache.mem_side_port::total    613383936                       # Cumulative packet size per connected requestor and responder (Byte)
system.membus.pktSize::total                613383936                       # Cumulative packet size per connected requestor and responder (Byte)
system.membus.snoops                                0                       # Total snoops (Count)
system.membus.snoopTraffic                          0                       # Total snoop traffic (Byte)
system.membus.snoopFanout::samples           19164868                       # Request fanout histogram (Count)
system.membus.snoopFanout::mean                     0                       # Request fanout histogram (Count)
system.membus.snoopFanout::stdev                    0                       # Request fanout histogram (Count)
system.membus.snoopFanout::underflows               0      0.00%      0.00% # Request fanout histogram (Count)
system.membus.snoopFanout::0                 19164868    100.00%    100.00% # Request fanout histogram (Count)
system.membus.snoopFanout::1                        0      0.00%    100.00% # Request fanout histogram (Count)
system.membus.snoopFanout::overflows                0      0.00%    100.00% # Request fanout histogram (Count)
system.membus.snoopFanout::min_value                0                       # Request fanout histogram (Count)
system.membus.snoopFanout::max_value                0                       # Request fanout histogram (Count)
system.membus.snoopFanout::total             19164868                       # Request fanout histogram (Count)
system.membus.power_state.pwrStateResidencyTicks::UNDEFINED 3019915266000                       # Cumulative time (in ticks) in various power states (Tick)
system.membus.reqLayer2.occupancy         19166159000                       # Layer occupancy (ticks) (Tick)
system.membus.reqLayer2.utilization               0.0                       # Layer utilization (Ratio)
system.membus.respLayer0.occupancy        50644165250                       # Layer occupancy (ticks) (Tick)
system.membus.respLayer0.utilization              0.0                       # Layer utilization (Ratio)
system.membus.snoop_filter.totRequests       19164874                       # Total number of requests made to the snoop filter. (Count)
system.membus.snoop_filter.hitSingleRequests      9581006                       # Number of requests hitting in the snoop filter with a single holder of the requested data. (Count)
system.membus.snoop_filter.hitMultiRequests            0                       # Number of requests hitting in the snoop filter with multiple (>1) holders of the requested data. (Count)
system.membus.snoop_filter.totSnoops                0                       # Total number of snoops made to the snoop filter. (Count)
system.membus.snoop_filter.hitSingleSnoops            0                       # Number of snoops hitting in the snoop filter with a single holder of the requested data. (Count)
system.membus.snoop_filter.hitMultiSnoops            0                       # Number of snoops hitting in the snoop filter with multiple (>1) holders of the requested data. (Count)
system.workload.inst.arm                            0                       # number of arm instructions executed (Count)
system.workload.inst.quiesce                        0                       # number of quiesce instructions executed (Count)

---------- End Simulation Statistics   ----------
