
---------- Begin Simulation Statistics ----------
simSeconds                                   2.187338                       # Number of seconds simulated (Second)
simTicks                                 2187338379000                       # Number of ticks simulated (Tick)
finalTick                                2187338379000                       # Number of ticks from beginning of simulation (restored from checkpoints and never reset) (Tick)
simFreq                                  1000000000000                       # The number of ticks per simulated second ((Tick/Second))
hostSeconds                                   3301.81                       # Real time elapsed on the host (Second)
hostTickRate                                662466319                       # The number of ticks simulated per host second (ticks/s) ((Tick/Second))
hostMemory                                     725584                       # Number of bytes of host memory used (Byte)
simInsts                                    904465246                       # Number of instructions simulated (Count)
simOps                                     1543218280                       # Number of ops (including micro ops) simulated (Count)
hostInstRate                                   273930                       # Simulator instruction rate (inst/s) ((Count/Second))
hostOpRate                                     467385                       # Simulator op (including micro ops) rate (op/s) ((Count/Second))
system.clk_domain.clock                          1000                       # Clock period in ticks (Tick)
system.clk_domain.voltage_domain.voltage            1                       # Voltage in Volts (Volt)
system.cpu.numCycles                       2187338380                       # Number of cpu cycles simulated (Cycle)
system.cpu.cpi                               2.418377                       # CPI: cycles per instruction (core level) ((Cycle/Count))
system.cpu.ipc                               0.413500                       # IPC: instructions per cycle (core level) ((Count/Cycle))
system.cpu.numWorkItemsStarted                      0                       # Number of work items this cpu started (Count)
system.cpu.numWorkItemsCompleted                    0                       # Number of work items this cpu completed (Count)
system.cpu.instsAdded                      2310618928                       # Number of instructions added to the IQ (excludes non-spec) (Count)
system.cpu.nonSpecInstsAdded                 44476011                       # Number of non-speculative instructions added to the IQ (Count)
system.cpu.instsIssued                     1876795914                       # Number of instructions issued (Count)
system.cpu.squashedInstsIssued                5804758                       # Number of squashed instructions issued (Count)
system.cpu.squashedInstsExamined            811876653                       # Number of squashed instructions iterated over during squash; mainly for profiling (Count)
system.cpu.squashedOperandsExamined        2214538486                       # Number of squashed operands that are examined and possibly removed from graph (Count)
system.cpu.squashedNonSpecRemoved            24991245                       # Number of squashed non-spec instructions that were removed (Count)
system.cpu.numIssuedDist::samples          2187312017                       # Number of insts issued each cycle (Count)
system.cpu.numIssuedDist::mean               0.858038                       # Number of insts issued each cycle (Count)
system.cpu.numIssuedDist::stdev              1.397818                       # Number of insts issued each cycle (Count)
system.cpu.numIssuedDist::underflows                0      0.00%      0.00% # Number of insts issued each cycle (Count)
system.cpu.numIssuedDist::0                1404062341     64.19%     64.19% # Number of insts issued each cycle (Count)
system.cpu.numIssuedDist::1                 219067425     10.02%     74.21% # Number of insts issued each cycle (Count)
system.cpu.numIssuedDist::2                 256234648     11.71%     85.92% # Number of insts issued each cycle (Count)
system.cpu.numIssuedDist::3                 172607816      7.89%     93.81% # Number of insts issued each cycle (Count)
system.cpu.numIssuedDist::4                  90948859      4.16%     97.97% # Number of insts issued each cycle (Count)
system.cpu.numIssuedDist::5                  25218674      1.15%     99.12% # Number of insts issued each cycle (Count)
system.cpu.numIssuedDist::6                   5727895      0.26%     99.39% # Number of insts issued each cycle (Count)
system.cpu.numIssuedDist::7                   4375303      0.20%     99.59% # Number of insts issued each cycle (Count)
system.cpu.numIssuedDist::8                   9069056      0.41%    100.00% # Number of insts issued each cycle (Count)
system.cpu.numIssuedDist::overflows                 0      0.00%    100.00% # Number of insts issued each cycle (Count)
system.cpu.numIssuedDist::min_value                 0                       # Number of insts issued each cycle (Count)
system.cpu.numIssuedDist::max_value                 8                       # Number of insts issued each cycle (Count)
system.cpu.numIssuedDist::total            2187312017                       # Number of insts issued each cycle (Count)
system.cpu.statFuBusy::No_OpClass                   0      0.00%      0.00% # attempts to use FU when none available (Count)
system.cpu.statFuBusy::IntAlu                  192018      2.23%      2.23% # attempts to use FU when none available (Count)
system.cpu.statFuBusy::IntMult                      0      0.00%      2.23% # attempts to use FU when none available (Count)
system.cpu.statFuBusy::IntDiv                       0      0.00%      2.23% # attempts to use FU when none available (Count)
system.cpu.statFuBusy::FloatAdd                     0      0.00%      2.23% # attempts to use FU when none available (Count)
system.cpu.statFuBusy::FloatCmp                     0      0.00%      2.23% # attempts to use FU when none available (Count)
system.cpu.statFuBusy::FloatCvt                     0      0.00%      2.23% # attempts to use FU when none available (Count)
system.cpu.statFuBusy::FloatMult                    0      0.00%      2.23% # attempts to use FU when none available (Count)
system.cpu.statFuBusy::FloatMultAcc                 0      0.00%      2.23% # attempts to use FU when none available (Count)
system.cpu.statFuBusy::FloatDiv                     0      0.00%      2.23% # attempts to use FU when none available (Count)
system.cpu.statFuBusy::FloatMisc                    0      0.00%      2.23% # attempts to use FU when none available (Count)
system.cpu.statFuBusy::FloatSqrt                    0      0.00%      2.23% # attempts to use FU when none available (Count)
system.cpu.statFuBusy::SimdAdd                      0      0.00%      2.23% # attempts to use FU when none available (Count)
system.cpu.statFuBusy::SimdAddAcc                   0      0.00%      2.23% # attempts to use FU when none available (Count)
system.cpu.statFuBusy::SimdAlu                     11      0.00%      2.23% # attempts to use FU when none available (Count)
system.cpu.statFuBusy::SimdCmp                      0      0.00%      2.23% # attempts to use FU when none available (Count)
system.cpu.statFuBusy::SimdCvt                     13      0.00%      2.23% # attempts to use FU when none available (Count)
system.cpu.statFuBusy::SimdMisc                     5      0.00%      2.23% # attempts to use FU when none available (Count)
system.cpu.statFuBusy::SimdMult                     0      0.00%      2.23% # attempts to use FU when none available (Count)
system.cpu.statFuBusy::SimdMultAcc                  0      0.00%      2.23% # attempts to use FU when none available (Count)
system.cpu.statFuBusy::SimdMatMultAcc               0      0.00%      2.23% # attempts to use FU when none available (Count)
system.cpu.statFuBusy::SimdShift                    0      0.00%      2.23% # attempts to use FU when none available (Count)
system.cpu.statFuBusy::SimdShiftAcc                 0      0.00%      2.23% # attempts to use FU when none available (Count)
system.cpu.statFuBusy::SimdDiv                      0      0.00%      2.23% # attempts to use FU when none available (Count)
system.cpu.statFuBusy::SimdSqrt                     0      0.00%      2.23% # attempts to use FU when none available (Count)
system.cpu.statFuBusy::SimdFloatAdd                 0      0.00%      2.23% # attempts to use FU when none available (Count)
system.cpu.statFuBusy::SimdFloatAlu                 0      0.00%      2.23% # attempts to use FU when none available (Count)
system.cpu.statFuBusy::SimdFloatCmp                 0      0.00%      2.23% # attempts to use FU when none available (Count)
system.cpu.statFuBusy::SimdFloatCvt                 0      0.00%      2.23% # attempts to use FU when none available (Count)
system.cpu.statFuBusy::SimdFloatDiv                 0      0.00%      2.23% # attempts to use FU when none available (Count)
system.cpu.statFuBusy::SimdFloatMisc                0      0.00%      2.23% # attempts to use FU when none available (Count)
system.cpu.statFuBusy::SimdFloatMult                0      0.00%      2.23% # attempts to use FU when none available (Count)
system.cpu.statFuBusy::SimdFloatMultAcc             0      0.00%      2.23% # attempts to use FU when none available (Count)
system.cpu.statFuBusy::SimdFloatMatMultAcc            0      0.00%      2.23% # attempts to use FU when none available (Count)
system.cpu.statFuBusy::SimdFloatSqrt                0      0.00%      2.23% # attempts to use FU when none available (Count)
system.cpu.statFuBusy::SimdReduceAdd                0      0.00%      2.23% # attempts to use FU when none available (Count)
system.cpu.statFuBusy::SimdReduceAlu                0      0.00%      2.23% # attempts to use FU when none available (Count)
system.cpu.statFuBusy::SimdReduceCmp                0      0.00%      2.23% # attempts to use FU when none available (Count)
system.cpu.statFuBusy::SimdFloatReduceAdd            0      0.00%      2.23% # attempts to use FU when none available (Count)
system.cpu.statFuBusy::SimdFloatReduceCmp            0      0.00%      2.23% # attempts to use FU when none available (Count)
system.cpu.statFuBusy::SimdAes                      0      0.00%      2.23% # attempts to use FU when none available (Count)
system.cpu.statFuBusy::SimdAesMix                   0      0.00%      2.23% # attempts to use FU when none available (Count)
system.cpu.statFuBusy::SimdSha1Hash                 0      0.00%      2.23% # attempts to use FU when none available (Count)
system.cpu.statFuBusy::SimdSha1Hash2                0      0.00%      2.23% # attempts to use FU when none available (Count)
system.cpu.statFuBusy::SimdSha256Hash               0      0.00%      2.23% # attempts to use FU when none available (Count)
system.cpu.statFuBusy::SimdSha256Hash2              0      0.00%      2.23% # attempts to use FU when none available (Count)
system.cpu.statFuBusy::SimdShaSigma2                0      0.00%      2.23% # attempts to use FU when none available (Count)
system.cpu.statFuBusy::SimdShaSigma3                0      0.00%      2.23% # attempts to use FU when none available (Count)
system.cpu.statFuBusy::SimdPredAlu                  0      0.00%      2.23% # attempts to use FU when none available (Count)
system.cpu.statFuBusy::Matrix                       0      0.00%      2.23% # attempts to use FU when none available (Count)
system.cpu.statFuBusy::MatrixMov                    0      0.00%      2.23% # attempts to use FU when none available (Count)
system.cpu.statFuBusy::MatrixOP                     0      0.00%      2.23% # attempts to use FU when none available (Count)
system.cpu.statFuBusy::MemRead                8429774     97.77%     99.99% # attempts to use FU when none available (Count)
system.cpu.statFuBusy::MemWrite                   576      0.01%    100.00% # attempts to use FU when none available (Count)
system.cpu.statFuBusy::FloatMemRead                 8      0.00%    100.00% # attempts to use FU when none available (Count)
system.cpu.statFuBusy::FloatMemWrite               10      0.00%    100.00% # attempts to use FU when none available (Count)
system.cpu.statFuBusy::IprAccess                    0      0.00%    100.00% # attempts to use FU when none available (Count)
system.cpu.statFuBusy::InstPrefetch                 0      0.00%    100.00% # attempts to use FU when none available (Count)
system.cpu.statFuBusy::VectorUnitStrideLoad            0      0.00%    100.00% # attempts to use FU when none available (Count)
system.cpu.statFuBusy::VectorUnitStrideStore            0      0.00%    100.00% # attempts to use FU when none available (Count)
system.cpu.statFuBusy::VectorUnitStrideMaskLoad            0      0.00%    100.00% # attempts to use FU when none available (Count)
system.cpu.statFuBusy::VectorUnitStrideMaskStore            0      0.00%    100.00% # attempts to use FU when none available (Count)
system.cpu.statFuBusy::VectorStridedLoad            0      0.00%    100.00% # attempts to use FU when none available (Count)
system.cpu.statFuBusy::VectorStridedStore            0      0.00%    100.00% # attempts to use FU when none available (Count)
system.cpu.statFuBusy::VectorIndexedLoad            0      0.00%    100.00% # attempts to use FU when none available (Count)
system.cpu.statFuBusy::VectorIndexedStore            0      0.00%    100.00% # attempts to use FU when none available (Count)
system.cpu.statFuBusy::VectorUnitStrideFaultOnlyFirstLoad            0      0.00%    100.00% # attempts to use FU when none available (Count)
system.cpu.statFuBusy::VectorWholeRegisterLoad            0      0.00%    100.00% # attempts to use FU when none available (Count)
system.cpu.statFuBusy::VectorWholeRegisterStore            0      0.00%    100.00% # attempts to use FU when none available (Count)
system.cpu.statFuBusy::VectorIntegerArith            0      0.00%    100.00% # attempts to use FU when none available (Count)
system.cpu.statFuBusy::VectorFloatArith             0      0.00%    100.00% # attempts to use FU when none available (Count)
system.cpu.statFuBusy::VectorFloatConvert            0      0.00%    100.00% # attempts to use FU when none available (Count)
system.cpu.statFuBusy::VectorIntegerReduce            0      0.00%    100.00% # attempts to use FU when none available (Count)
system.cpu.statFuBusy::VectorFloatReduce            0      0.00%    100.00% # attempts to use FU when none available (Count)
system.cpu.statFuBusy::VectorMisc                   0      0.00%    100.00% # attempts to use FU when none available (Count)
system.cpu.statFuBusy::VectorIntegerExtension            0      0.00%    100.00% # attempts to use FU when none available (Count)
system.cpu.statFuBusy::VectorConfig                 0      0.00%    100.00% # attempts to use FU when none available (Count)
system.cpu.statIssuedInstType_0::No_OpClass          938      0.00%      0.00% # Number of instructions issued per FU type, per thread (Count)
system.cpu.statIssuedInstType_0::IntAlu    1345301798     71.68%     71.68% # Number of instructions issued per FU type, per thread (Count)
system.cpu.statIssuedInstType_0::IntMult      7150021      0.38%     72.06% # Number of instructions issued per FU type, per thread (Count)
system.cpu.statIssuedInstType_0::IntDiv        372310      0.02%     72.08% # Number of instructions issued per FU type, per thread (Count)
system.cpu.statIssuedInstType_0::FloatAdd          336      0.00%     72.08% # Number of instructions issued per FU type, per thread (Count)
system.cpu.statIssuedInstType_0::FloatCmp            0      0.00%     72.08% # Number of instructions issued per FU type, per thread (Count)
system.cpu.statIssuedInstType_0::FloatCvt            0      0.00%     72.08% # Number of instructions issued per FU type, per thread (Count)
system.cpu.statIssuedInstType_0::FloatMult            0      0.00%     72.08% # Number of instructions issued per FU type, per thread (Count)
system.cpu.statIssuedInstType_0::FloatMultAcc            0      0.00%     72.08% # Number of instructions issued per FU type, per thread (Count)
system.cpu.statIssuedInstType_0::FloatDiv            0      0.00%     72.08% # Number of instructions issued per FU type, per thread (Count)
system.cpu.statIssuedInstType_0::FloatMisc            0      0.00%     72.08% # Number of instructions issued per FU type, per thread (Count)
system.cpu.statIssuedInstType_0::FloatSqrt            0      0.00%     72.08% # Number of instructions issued per FU type, per thread (Count)
system.cpu.statIssuedInstType_0::SimdAdd            0      0.00%     72.08% # Number of instructions issued per FU type, per thread (Count)
system.cpu.statIssuedInstType_0::SimdAddAcc            0      0.00%     72.08% # Number of instructions issued per FU type, per thread (Count)
system.cpu.statIssuedInstType_0::SimdAlu         1706      0.00%     72.08% # Number of instructions issued per FU type, per thread (Count)
system.cpu.statIssuedInstType_0::SimdCmp            6      0.00%     72.08% # Number of instructions issued per FU type, per thread (Count)
system.cpu.statIssuedInstType_0::SimdCvt         1978      0.00%     72.08% # Number of instructions issued per FU type, per thread (Count)
system.cpu.statIssuedInstType_0::SimdMisc         3362      0.00%     72.08% # Number of instructions issued per FU type, per thread (Count)
system.cpu.statIssuedInstType_0::SimdMult            0      0.00%     72.08% # Number of instructions issued per FU type, per thread (Count)
system.cpu.statIssuedInstType_0::SimdMultAcc            0      0.00%     72.08% # Number of instructions issued per FU type, per thread (Count)
system.cpu.statIssuedInstType_0::SimdMatMultAcc            0      0.00%     72.08% # Number of instructions issued per FU type, per thread (Count)
system.cpu.statIssuedInstType_0::SimdShift            0      0.00%     72.08% # Number of instructions issued per FU type, per thread (Count)
system.cpu.statIssuedInstType_0::SimdShiftAcc            0      0.00%     72.08% # Number of instructions issued per FU type, per thread (Count)
system.cpu.statIssuedInstType_0::SimdDiv            0      0.00%     72.08% # Number of instructions issued per FU type, per thread (Count)
system.cpu.statIssuedInstType_0::SimdSqrt            0      0.00%     72.08% # Number of instructions issued per FU type, per thread (Count)
system.cpu.statIssuedInstType_0::SimdFloatAdd            0      0.00%     72.08% # Number of instructions issued per FU type, per thread (Count)
system.cpu.statIssuedInstType_0::SimdFloatAlu            0      0.00%     72.08% # Number of instructions issued per FU type, per thread (Count)
system.cpu.statIssuedInstType_0::SimdFloatCmp            0      0.00%     72.08% # Number of instructions issued per FU type, per thread (Count)
system.cpu.statIssuedInstType_0::SimdFloatCvt            0      0.00%     72.08% # Number of instructions issued per FU type, per thread (Count)
system.cpu.statIssuedInstType_0::SimdFloatDiv            0      0.00%     72.08% # Number of instructions issued per FU type, per thread (Count)
system.cpu.statIssuedInstType_0::SimdFloatMisc            0      0.00%     72.08% # Number of instructions issued per FU type, per thread (Count)
system.cpu.statIssuedInstType_0::SimdFloatMult            0      0.00%     72.08% # Number of instructions issued per FU type, per thread (Count)
system.cpu.statIssuedInstType_0::SimdFloatMultAcc            0      0.00%     72.08% # Number of instructions issued per FU type, per thread (Count)
system.cpu.statIssuedInstType_0::SimdFloatMatMultAcc            0      0.00%     72.08% # Number of instructions issued per FU type, per thread (Count)
system.cpu.statIssuedInstType_0::SimdFloatSqrt            0      0.00%     72.08% # Number of instructions issued per FU type, per thread (Count)
system.cpu.statIssuedInstType_0::SimdReduceAdd            0      0.00%     72.08% # Number of instructions issued per FU type, per thread (Count)
system.cpu.statIssuedInstType_0::SimdReduceAlu            0      0.00%     72.08% # Number of instructions issued per FU type, per thread (Count)
system.cpu.statIssuedInstType_0::SimdReduceCmp            0      0.00%     72.08% # Number of instructions issued per FU type, per thread (Count)
system.cpu.statIssuedInstType_0::SimdFloatReduceAdd            0      0.00%     72.08% # Number of instructions issued per FU type, per thread (Count)
system.cpu.statIssuedInstType_0::SimdFloatReduceCmp            0      0.00%     72.08% # Number of instructions issued per FU type, per thread (Count)
system.cpu.statIssuedInstType_0::SimdAes            0      0.00%     72.08% # Number of instructions issued per FU type, per thread (Count)
system.cpu.statIssuedInstType_0::SimdAesMix            0      0.00%     72.08% # Number of instructions issued per FU type, per thread (Count)
system.cpu.statIssuedInstType_0::SimdSha1Hash            0      0.00%     72.08% # Number of instructions issued per FU type, per thread (Count)
system.cpu.statIssuedInstType_0::SimdSha1Hash2            0      0.00%     72.08% # Number of instructions issued per FU type, per thread (Count)
system.cpu.statIssuedInstType_0::SimdSha256Hash            0      0.00%     72.08% # Number of instructions issued per FU type, per thread (Count)
system.cpu.statIssuedInstType_0::SimdSha256Hash2            0      0.00%     72.08% # Number of instructions issued per FU type, per thread (Count)
system.cpu.statIssuedInstType_0::SimdShaSigma2            0      0.00%     72.08% # Number of instructions issued per FU type, per thread (Count)
system.cpu.statIssuedInstType_0::SimdShaSigma3            0      0.00%     72.08% # Number of instructions issued per FU type, per thread (Count)
system.cpu.statIssuedInstType_0::SimdPredAlu            0      0.00%     72.08% # Number of instructions issued per FU type, per thread (Count)
system.cpu.statIssuedInstType_0::Matrix             0      0.00%     72.08% # Number of instructions issued per FU type, per thread (Count)
system.cpu.statIssuedInstType_0::MatrixMov            0      0.00%     72.08% # Number of instructions issued per FU type, per thread (Count)
system.cpu.statIssuedInstType_0::MatrixOP            0      0.00%     72.08% # Number of instructions issued per FU type, per thread (Count)
system.cpu.statIssuedInstType_0::MemRead    344817213     18.37%     90.45% # Number of instructions issued per FU type, per thread (Count)
system.cpu.statIssuedInstType_0::MemWrite    179145004      9.55%    100.00% # Number of instructions issued per FU type, per thread (Count)
system.cpu.statIssuedInstType_0::FloatMemRead         1058      0.00%    100.00% # Number of instructions issued per FU type, per thread (Count)
system.cpu.statIssuedInstType_0::FloatMemWrite          184      0.00%    100.00% # Number of instructions issued per FU type, per thread (Count)
system.cpu.statIssuedInstType_0::IprAccess            0      0.00%    100.00% # Number of instructions issued per FU type, per thread (Count)
system.cpu.statIssuedInstType_0::InstPrefetch            0      0.00%    100.00% # Number of instructions issued per FU type, per thread (Count)
system.cpu.statIssuedInstType_0::VectorUnitStrideLoad            0      0.00%    100.00% # Number of instructions issued per FU type, per thread (Count)
system.cpu.statIssuedInstType_0::VectorUnitStrideStore            0      0.00%    100.00% # Number of instructions issued per FU type, per thread (Count)
system.cpu.statIssuedInstType_0::VectorUnitStrideMaskLoad            0      0.00%    100.00% # Number of instructions issued per FU type, per thread (Count)
system.cpu.statIssuedInstType_0::VectorUnitStrideMaskStore            0      0.00%    100.00% # Number of instructions issued per FU type, per thread (Count)
system.cpu.statIssuedInstType_0::VectorStridedLoad            0      0.00%    100.00% # Number of instructions issued per FU type, per thread (Count)
system.cpu.statIssuedInstType_0::VectorStridedStore            0      0.00%    100.00% # Number of instructions issued per FU type, per thread (Count)
system.cpu.statIssuedInstType_0::VectorIndexedLoad            0      0.00%    100.00% # Number of instructions issued per FU type, per thread (Count)
system.cpu.statIssuedInstType_0::VectorIndexedStore            0      0.00%    100.00% # Number of instructions issued per FU type, per thread (Count)
system.cpu.statIssuedInstType_0::VectorUnitStrideFaultOnlyFirstLoad            0      0.00%    100.00% # Number of instructions issued per FU type, per thread (Count)
system.cpu.statIssuedInstType_0::VectorWholeRegisterLoad            0      0.00%    100.00% # Number of instructions issued per FU type, per thread (Count)
system.cpu.statIssuedInstType_0::VectorWholeRegisterStore            0      0.00%    100.00% # Number of instructions issued per FU type, per thread (Count)
system.cpu.statIssuedInstType_0::VectorIntegerArith            0      0.00%    100.00% # Number of instructions issued per FU type, per thread (Count)
system.cpu.statIssuedInstType_0::VectorFloatArith            0      0.00%    100.00% # Number of instructions issued per FU type, per thread (Count)
system.cpu.statIssuedInstType_0::VectorFloatConvert            0      0.00%    100.00% # Number of instructions issued per FU type, per thread (Count)
system.cpu.statIssuedInstType_0::VectorIntegerReduce            0      0.00%    100.00% # Number of instructions issued per FU type, per thread (Count)
system.cpu.statIssuedInstType_0::VectorFloatReduce            0      0.00%    100.00% # Number of instructions issued per FU type, per thread (Count)
system.cpu.statIssuedInstType_0::VectorMisc            0      0.00%    100.00% # Number of instructions issued per FU type, per thread (Count)
system.cpu.statIssuedInstType_0::VectorIntegerExtension            0      0.00%    100.00% # Number of instructions issued per FU type, per thread (Count)
system.cpu.statIssuedInstType_0::VectorConfig            0      0.00%    100.00% # Number of instructions issued per FU type, per thread (Count)
system.cpu.statIssuedInstType_0::total     1876795914                       # Number of instructions issued per FU type, per thread (Count)
system.cpu.issueRate                         0.858027                       # Inst issue rate ((Count/Cycle))
system.cpu.fuBusy                             8622415                       # FU busy when requested (Count)
system.cpu.fuBusyRate                        0.004594                       # FU busy rate (busy events/executed inst) ((Count/Count))
system.cpu.intInstQueueReads               5955311285                       # Number of integer instruction queue reads (Count)
system.cpu.intInstQueueWrites              3180948377                       # Number of integer instruction queue writes (Count)
system.cpu.intInstQueueWakeupAccesses      1861253032                       # Number of integer instruction queue wakeup accesses (Count)
system.cpu.fpInstQueueReads                     19733                       # Number of floating instruction queue reads (Count)
system.cpu.fpInstQueueWrites                    10284                       # Number of floating instruction queue writes (Count)
system.cpu.fpInstQueueWakeupAccesses             9796                       # Number of floating instruction queue wakeup accesses (Count)
system.cpu.vecInstQueueReads                        0                       # Number of vector instruction queue reads (Count)
system.cpu.vecInstQueueWrites                       0                       # Number of vector instruction queue writes (Count)
system.cpu.vecInstQueueWakeupAccesses               0                       # Number of vector instruction queue wakeup accesses (Count)
system.cpu.intAluAccesses                  1885407504                       # Number of integer alu accesses (Count)
system.cpu.fpAluAccesses                         9887                       # Number of floating point alu accesses (Count)
system.cpu.vecAluAccesses                           0                       # Number of vector alu accesses (Count)
system.cpu.numSquashedInsts                   4921337                       # Number of squashed instructions skipped in execute (Count)
system.cpu.numSwp                                   0                       # Number of swp insts executed (Count)
system.cpu.timesIdled                             706                       # Number of times that the entire CPU went into an idle state and unscheduled itself (Count)
system.cpu.idleCycles                           26363                       # Total number of cycles that the CPU has spent unscheduled due to idling (Cycle)
system.cpu.MemDepUnit__0.insertedLoads      462443390                       # Number of loads inserted to the mem dependence unit. (Count)
system.cpu.MemDepUnit__0.insertedStores     277258201                       # Number of stores inserted to the mem dependence unit. (Count)
system.cpu.MemDepUnit__0.conflictingLoads    414897843                       # Number of conflicting loads. (Count)
system.cpu.MemDepUnit__0.conflictingStores    212152685                       # Number of conflicting stores. (Count)
system.cpu.MemDepUnit__1.insertedLoads              0                       # Number of loads inserted to the mem dependence unit. (Count)
system.cpu.MemDepUnit__1.insertedStores             0                       # Number of stores inserted to the mem dependence unit. (Count)
system.cpu.MemDepUnit__1.conflictingLoads            0                       # Number of conflicting loads. (Count)
system.cpu.MemDepUnit__1.conflictingStores            0                       # Number of conflicting stores. (Count)
system.cpu.MemDepUnit__2.insertedLoads              0                       # Number of loads inserted to the mem dependence unit. (Count)
system.cpu.MemDepUnit__2.insertedStores             0                       # Number of stores inserted to the mem dependence unit. (Count)
system.cpu.MemDepUnit__2.conflictingLoads            0                       # Number of conflicting loads. (Count)
system.cpu.MemDepUnit__2.conflictingStores            0                       # Number of conflicting stores. (Count)
system.cpu.MemDepUnit__3.insertedLoads              0                       # Number of loads inserted to the mem dependence unit. (Count)
system.cpu.MemDepUnit__3.insertedStores             0                       # Number of stores inserted to the mem dependence unit. (Count)
system.cpu.MemDepUnit__3.conflictingLoads            0                       # Number of conflicting loads. (Count)
system.cpu.MemDepUnit__3.conflictingStores            0                       # Number of conflicting stores. (Count)
system.cpu.branchPred.lookups               204949459                       # Number of BP lookups (Count)
system.cpu.branchPred.condPredicted         195906742                       # Number of conditional branches predicted (Count)
system.cpu.branchPred.condIncorrect            831476                       # Number of conditional branches incorrect (Count)
system.cpu.branchPred.BTBLookups            189262050                       # Number of BTB lookups (Count)
system.cpu.branchPred.BTBUpdates                55630                       # Number of BTB updates (Count)
system.cpu.branchPred.BTBHits               189261617                       # Number of BTB hits (Count)
system.cpu.branchPred.BTBHitRatio            0.999998                       # BTB Hit Ratio (Ratio)
system.cpu.branchPred.RASUsed                  906351                       # Number of times the RAS was used to get a target. (Count)
system.cpu.branchPred.RASIncorrect                  3                       # Number of incorrect RAS predictions. (Count)
system.cpu.branchPred.indirectLookups            1340                       # Number of indirect predictor lookups. (Count)
system.cpu.branchPred.indirectHits               1083                       # Number of indirect target hits. (Count)
system.cpu.branchPred.indirectMisses              257                       # Number of indirect misses. (Count)
system.cpu.branchPred.indirectMispredicted          179                       # Number of mispredicted indirect branches. (Count)
system.cpu.branchPred.loop_predictor.correct    112746170                       # Number of times the loop predictor is the provider and the prediction is correct (Count)
system.cpu.branchPred.loop_predictor.wrong      1179314                       # Number of times the loop predictor is the provider and the prediction is wrong (Count)
system.cpu.branchPred.statistical_corrector.correct    113112153                       # Number of time the SC predictor is the provider and the prediction is correct (Count)
system.cpu.branchPred.statistical_corrector.wrong       813331                       # Number of time the SC predictor is the provider and the prediction is wrong (Count)
system.cpu.branchPred.tage.longestMatchProviderCorrect     85756706                       # Number of times TAGE Longest Match is the provider and the prediction is correct (Count)
system.cpu.branchPred.tage.altMatchProviderCorrect       189778                       # Number of times TAGE Alt Match is the provider and the prediction is correct (Count)
system.cpu.branchPred.tage.bimodalAltMatchProviderCorrect          185                       # Number of times TAGE Alt Match is the bimodal and it is the provider and the prediction is correct (Count)
system.cpu.branchPred.tage.bimodalProviderCorrect     27173531                       # Number of times there are no hits on the TAGE tables and the bimodal prediction is correct (Count)
system.cpu.branchPred.tage.longestMatchProviderWrong       615790                       # Number of times TAGE Longest Match is the provider and the prediction is wrong (Count)
system.cpu.branchPred.tage.altMatchProviderWrong       188766                       # Number of times TAGE Alt Match is the provider and the prediction is wrong (Count)
system.cpu.branchPred.tage.bimodalAltMatchProviderWrong           30                       # Number of times TAGE Alt Match is the bimodal and it is the provider and the prediction is wrong (Count)
system.cpu.branchPred.tage.bimodalProviderWrong          698                       # Number of times there are no hits on the TAGE tables and the bimodal prediction is wrong (Count)
system.cpu.branchPred.tage.altMatchProviderWouldHaveHit         9382                       # Number of times TAGE Longest Match is the provider, the prediction is wrong and Alt Match prediction was correct (Count)
system.cpu.branchPred.tage.longestMatchProviderWouldHaveHit       162683                       # Number of times TAGE Alt Match is the provider, the prediction is wrong and Longest Match prediction was correct (Count)
system.cpu.branchPred.tage.longestMatchProvider::0            0                       # TAGE provider for longest match (Count)
system.cpu.branchPred.tage.longestMatchProvider::1       908279                       # TAGE provider for longest match (Count)
system.cpu.branchPred.tage.longestMatchProvider::2       736866                       # TAGE provider for longest match (Count)
system.cpu.branchPred.tage.longestMatchProvider::3      4738577                       # TAGE provider for longest match (Count)
system.cpu.branchPred.tage.longestMatchProvider::4     17336970                       # TAGE provider for longest match (Count)
system.cpu.branchPred.tage.longestMatchProvider::5       982160                       # TAGE provider for longest match (Count)
system.cpu.branchPred.tage.longestMatchProvider::6     17207964                       # TAGE provider for longest match (Count)
system.cpu.branchPred.tage.longestMatchProvider::7     20040309                       # TAGE provider for longest match (Count)
system.cpu.branchPred.tage.longestMatchProvider::8      1302303                       # TAGE provider for longest match (Count)
system.cpu.branchPred.tage.longestMatchProvider::9      4158307                       # TAGE provider for longest match (Count)
system.cpu.branchPred.tage.longestMatchProvider::10      5165060                       # TAGE provider for longest match (Count)
system.cpu.branchPred.tage.longestMatchProvider::11      4335350                       # TAGE provider for longest match (Count)
system.cpu.branchPred.tage.longestMatchProvider::12      3661607                       # TAGE provider for longest match (Count)
system.cpu.branchPred.tage.longestMatchProvider::13      1682307                       # TAGE provider for longest match (Count)
system.cpu.branchPred.tage.longestMatchProvider::14      1298010                       # TAGE provider for longest match (Count)
system.cpu.branchPred.tage.longestMatchProvider::15      3196971                       # TAGE provider for longest match (Count)
system.cpu.branchPred.tage.altMatchProvider::0      5733500                       # TAGE provider for alt match (Count)
system.cpu.branchPred.tage.altMatchProvider::1       675063                       # TAGE provider for alt match (Count)
system.cpu.branchPred.tage.altMatchProvider::2       642846                       # TAGE provider for alt match (Count)
system.cpu.branchPred.tage.altMatchProvider::3     16713902                       # TAGE provider for alt match (Count)
system.cpu.branchPred.tage.altMatchProvider::4     17750273                       # TAGE provider for alt match (Count)
system.cpu.branchPred.tage.altMatchProvider::5      1921658                       # TAGE provider for alt match (Count)
system.cpu.branchPred.tage.altMatchProvider::6     18989268                       # TAGE provider for alt match (Count)
system.cpu.branchPred.tage.altMatchProvider::7      3617030                       # TAGE provider for alt match (Count)
system.cpu.branchPred.tage.altMatchProvider::8      2191943                       # TAGE provider for alt match (Count)
system.cpu.branchPred.tage.altMatchProvider::9      6456369                       # TAGE provider for alt match (Count)
system.cpu.branchPred.tage.altMatchProvider::10      5421148                       # TAGE provider for alt match (Count)
system.cpu.branchPred.tage.altMatchProvider::11      2604391                       # TAGE provider for alt match (Count)
system.cpu.branchPred.tage.altMatchProvider::12      1943470                       # TAGE provider for alt match (Count)
system.cpu.branchPred.tage.altMatchProvider::13      1477905                       # TAGE provider for alt match (Count)
system.cpu.branchPred.tage.altMatchProvider::14       612274                       # TAGE provider for alt match (Count)
system.cpu.branchPred.tage.altMatchProvider::15            0                       # TAGE provider for alt match (Count)
system.cpu.commit.commitSquashedInsts       811874392                       # The number of squashed insts skipped by commit (Count)
system.cpu.commit.commitNonSpecStalls        19484766                       # The number of times commit has been forced to stall to communicate backwards (Count)
system.cpu.commit.branchMispredicts            780123                       # The number of times a branch was mispredicted (Count)
system.cpu.commit.numCommittedDist::samples   2080669770                       # Number of insts commited each cycle (Count)
system.cpu.commit.numCommittedDist::mean     0.741693                       # Number of insts commited each cycle (Count)
system.cpu.commit.numCommittedDist::stdev     1.537883                       # Number of insts commited each cycle (Count)
system.cpu.commit.numCommittedDist::underflows            0      0.00%      0.00% # Number of insts commited each cycle (Count)
system.cpu.commit.numCommittedDist::0      1492501914     71.73%     71.73% # Number of insts commited each cycle (Count)
system.cpu.commit.numCommittedDist::1       213460137     10.26%     81.99% # Number of insts commited each cycle (Count)
system.cpu.commit.numCommittedDist::2       133659116      6.42%     88.41% # Number of insts commited each cycle (Count)
system.cpu.commit.numCommittedDist::3       118011189      5.67%     94.09% # Number of insts commited each cycle (Count)
system.cpu.commit.numCommittedDist::4         1593107      0.08%     94.16% # Number of insts commited each cycle (Count)
system.cpu.commit.numCommittedDist::5        79000574      3.80%     97.96% # Number of insts commited each cycle (Count)
system.cpu.commit.numCommittedDist::6        13117332      0.63%     98.59% # Number of insts commited each cycle (Count)
system.cpu.commit.numCommittedDist::7         6284154      0.30%     98.89% # Number of insts commited each cycle (Count)
system.cpu.commit.numCommittedDist::8        23042247      1.11%    100.00% # Number of insts commited each cycle (Count)
system.cpu.commit.numCommittedDist::overflows            0      0.00%    100.00% # Number of insts commited each cycle (Count)
system.cpu.commit.numCommittedDist::min_value            0                       # Number of insts commited each cycle (Count)
system.cpu.commit.numCommittedDist::max_value            8                       # Number of insts commited each cycle (Count)
system.cpu.commit.numCommittedDist::total   2080669770                       # Number of insts commited each cycle (Count)
system.cpu.commit.amos                              0                       # Number of atomic instructions committed (Count)
system.cpu.commit.membars                    19484766                       # Number of memory barriers committed (Count)
system.cpu.commit.functionCalls                734700                       # Number of function calls committed. (Count)
system.cpu.commit.committedInstType_0::No_OpClass          651      0.00%      0.00% # Class of committed instruction (Count)
system.cpu.commit.committedInstType_0::IntAlu   1066804284     69.13%     69.13% # Class of committed instruction (Count)
system.cpu.commit.committedInstType_0::IntMult      6983311      0.45%     69.58% # Class of committed instruction (Count)
system.cpu.commit.committedInstType_0::IntDiv       342125      0.02%     69.60% # Class of committed instruction (Count)
system.cpu.commit.committedInstType_0::FloatAdd          336      0.00%     69.60% # Class of committed instruction (Count)
system.cpu.commit.committedInstType_0::FloatCmp            0      0.00%     69.60% # Class of committed instruction (Count)
system.cpu.commit.committedInstType_0::FloatCvt            0      0.00%     69.60% # Class of committed instruction (Count)
system.cpu.commit.committedInstType_0::FloatMult            0      0.00%     69.60% # Class of committed instruction (Count)
system.cpu.commit.committedInstType_0::FloatMultAcc            0      0.00%     69.60% # Class of committed instruction (Count)
system.cpu.commit.committedInstType_0::FloatDiv            0      0.00%     69.60% # Class of committed instruction (Count)
system.cpu.commit.committedInstType_0::FloatMisc            0      0.00%     69.60% # Class of committed instruction (Count)
system.cpu.commit.committedInstType_0::FloatSqrt            0      0.00%     69.60% # Class of committed instruction (Count)
system.cpu.commit.committedInstType_0::SimdAdd            0      0.00%     69.60% # Class of committed instruction (Count)
system.cpu.commit.committedInstType_0::SimdAddAcc            0      0.00%     69.60% # Class of committed instruction (Count)
system.cpu.commit.committedInstType_0::SimdAlu         1686      0.00%     69.60% # Class of committed instruction (Count)
system.cpu.commit.committedInstType_0::SimdCmp            6      0.00%     69.60% # Class of committed instruction (Count)
system.cpu.commit.committedInstType_0::SimdCvt         1936      0.00%     69.60% # Class of committed instruction (Count)
system.cpu.commit.committedInstType_0::SimdMisc         3356      0.00%     69.60% # Class of committed instruction (Count)
system.cpu.commit.committedInstType_0::SimdMult            0      0.00%     69.60% # Class of committed instruction (Count)
system.cpu.commit.committedInstType_0::SimdMultAcc            0      0.00%     69.60% # Class of committed instruction (Count)
system.cpu.commit.committedInstType_0::SimdMatMultAcc            0      0.00%     69.60% # Class of committed instruction (Count)
system.cpu.commit.committedInstType_0::SimdShift            0      0.00%     69.60% # Class of committed instruction (Count)
system.cpu.commit.committedInstType_0::SimdShiftAcc            0      0.00%     69.60% # Class of committed instruction (Count)
system.cpu.commit.committedInstType_0::SimdDiv            0      0.00%     69.60% # Class of committed instruction (Count)
system.cpu.commit.committedInstType_0::SimdSqrt            0      0.00%     69.60% # Class of committed instruction (Count)
system.cpu.commit.committedInstType_0::SimdFloatAdd            0      0.00%     69.60% # Class of committed instruction (Count)
system.cpu.commit.committedInstType_0::SimdFloatAlu            0      0.00%     69.60% # Class of committed instruction (Count)
system.cpu.commit.committedInstType_0::SimdFloatCmp            0      0.00%     69.60% # Class of committed instruction (Count)
system.cpu.commit.committedInstType_0::SimdFloatCvt            0      0.00%     69.60% # Class of committed instruction (Count)
system.cpu.commit.committedInstType_0::SimdFloatDiv            0      0.00%     69.60% # Class of committed instruction (Count)
system.cpu.commit.committedInstType_0::SimdFloatMisc            0      0.00%     69.60% # Class of committed instruction (Count)
system.cpu.commit.committedInstType_0::SimdFloatMult            0      0.00%     69.60% # Class of committed instruction (Count)
system.cpu.commit.committedInstType_0::SimdFloatMultAcc            0      0.00%     69.60% # Class of committed instruction (Count)
system.cpu.commit.committedInstType_0::SimdFloatMatMultAcc            0      0.00%     69.60% # Class of committed instruction (Count)
system.cpu.commit.committedInstType_0::SimdFloatSqrt            0      0.00%     69.60% # Class of committed instruction (Count)
system.cpu.commit.committedInstType_0::SimdReduceAdd            0      0.00%     69.60% # Class of committed instruction (Count)
system.cpu.commit.committedInstType_0::SimdReduceAlu            0      0.00%     69.60% # Class of committed instruction (Count)
system.cpu.commit.committedInstType_0::SimdReduceCmp            0      0.00%     69.60% # Class of committed instruction (Count)
system.cpu.commit.committedInstType_0::SimdFloatReduceAdd            0      0.00%     69.60% # Class of committed instruction (Count)
system.cpu.commit.committedInstType_0::SimdFloatReduceCmp            0      0.00%     69.60% # Class of committed instruction (Count)
system.cpu.commit.committedInstType_0::SimdAes            0      0.00%     69.60% # Class of committed instruction (Count)
system.cpu.commit.committedInstType_0::SimdAesMix            0      0.00%     69.60% # Class of committed instruction (Count)
system.cpu.commit.committedInstType_0::SimdSha1Hash            0      0.00%     69.60% # Class of committed instruction (Count)
system.cpu.commit.committedInstType_0::SimdSha1Hash2            0      0.00%     69.60% # Class of committed instruction (Count)
system.cpu.commit.committedInstType_0::SimdSha256Hash            0      0.00%     69.60% # Class of committed instruction (Count)
system.cpu.commit.committedInstType_0::SimdSha256Hash2            0      0.00%     69.60% # Class of committed instruction (Count)
system.cpu.commit.committedInstType_0::SimdShaSigma2            0      0.00%     69.60% # Class of committed instruction (Count)
system.cpu.commit.committedInstType_0::SimdShaSigma3            0      0.00%     69.60% # Class of committed instruction (Count)
system.cpu.commit.committedInstType_0::SimdPredAlu            0      0.00%     69.60% # Class of committed instruction (Count)
system.cpu.commit.committedInstType_0::Matrix            0      0.00%     69.60% # Class of committed instruction (Count)
system.cpu.commit.committedInstType_0::MatrixMov            0      0.00%     69.60% # Class of committed instruction (Count)
system.cpu.commit.committedInstType_0::MatrixOP            0      0.00%     69.60% # Class of committed instruction (Count)
system.cpu.commit.committedInstType_0::MemRead    300174567     19.45%     89.05% # Class of committed instruction (Count)
system.cpu.commit.committedInstType_0::MemWrite    168904864     10.94%    100.00% # Class of committed instruction (Count)
system.cpu.commit.committedInstType_0::FloatMemRead          998      0.00%    100.00% # Class of committed instruction (Count)
system.cpu.commit.committedInstType_0::FloatMemWrite          160      0.00%    100.00% # Class of committed instruction (Count)
system.cpu.commit.committedInstType_0::IprAccess            0      0.00%    100.00% # Class of committed instruction (Count)
system.cpu.commit.committedInstType_0::InstPrefetch            0      0.00%    100.00% # Class of committed instruction (Count)
system.cpu.commit.committedInstType_0::VectorUnitStrideLoad            0      0.00%    100.00% # Class of committed instruction (Count)
system.cpu.commit.committedInstType_0::VectorUnitStrideStore            0      0.00%    100.00% # Class of committed instruction (Count)
system.cpu.commit.committedInstType_0::VectorUnitStrideMaskLoad            0      0.00%    100.00% # Class of committed instruction (Count)
system.cpu.commit.committedInstType_0::VectorUnitStrideMaskStore            0      0.00%    100.00% # Class of committed instruction (Count)
system.cpu.commit.committedInstType_0::VectorStridedLoad            0      0.00%    100.00% # Class of committed instruction (Count)
system.cpu.commit.committedInstType_0::VectorStridedStore            0      0.00%    100.00% # Class of committed instruction (Count)
system.cpu.commit.committedInstType_0::VectorIndexedLoad            0      0.00%    100.00% # Class of committed instruction (Count)
system.cpu.commit.committedInstType_0::VectorIndexedStore            0      0.00%    100.00% # Class of committed instruction (Count)
system.cpu.commit.committedInstType_0::VectorUnitStrideFaultOnlyFirstLoad            0      0.00%    100.00% # Class of committed instruction (Count)
system.cpu.commit.committedInstType_0::VectorWholeRegisterLoad            0      0.00%    100.00% # Class of committed instruction (Count)
system.cpu.commit.committedInstType_0::VectorWholeRegisterStore            0      0.00%    100.00% # Class of committed instruction (Count)
system.cpu.commit.committedInstType_0::VectorIntegerArith            0      0.00%    100.00% # Class of committed instruction (Count)
system.cpu.commit.committedInstType_0::VectorFloatArith            0      0.00%    100.00% # Class of committed instruction (Count)
system.cpu.commit.committedInstType_0::VectorFloatConvert            0      0.00%    100.00% # Class of committed instruction (Count)
system.cpu.commit.committedInstType_0::VectorIntegerReduce            0      0.00%    100.00% # Class of committed instruction (Count)
system.cpu.commit.committedInstType_0::VectorFloatReduce            0      0.00%    100.00% # Class of committed instruction (Count)
system.cpu.commit.committedInstType_0::VectorMisc            0      0.00%    100.00% # Class of committed instruction (Count)
system.cpu.commit.committedInstType_0::VectorIntegerExtension            0      0.00%    100.00% # Class of committed instruction (Count)
system.cpu.commit.committedInstType_0::VectorConfig            0      0.00%    100.00% # Class of committed instruction (Count)
system.cpu.commit.committedInstType_0::total   1543218280                       # Class of committed instruction (Count)
system.cpu.commit.commitEligibleSamples      23042247                       # number cycles where commit BW limit reached (Cycle)
system.cpu.commitStats0.numInsts            904465246                       # Number of instructions committed (thread level) (Count)
system.cpu.commitStats0.numOps             1543218280                       # Number of ops (including micro ops) committed (thread level) (Count)
system.cpu.commitStats0.numInstsNotNOP      904465246                       # Number of instructions committed excluding NOPs or prefetches (Count)
system.cpu.commitStats0.numOpsNotNOP       1543218280                       # Number of Ops (including micro ops) Simulated (Count)
system.cpu.commitStats0.cpi                  2.418377                       # CPI: cycles per instruction (thread level) ((Cycle/Count))
system.cpu.commitStats0.ipc                  0.413500                       # IPC: instructions per cycle (thread level) ((Count/Cycle))
system.cpu.commitStats0.numMemRefs          469080589                       # Number of memory references committed (Count)
system.cpu.commitStats0.numFpInsts               9664                       # Number of float instructions (Count)
system.cpu.commitStats0.numIntInsts        1523676118                       # Number of integer instructions (Count)
system.cpu.commitStats0.numLoadInsts        300175565                       # Number of load instructions (Count)
system.cpu.commitStats0.numStoreInsts       168905024                       # Number of store instructions (Count)
system.cpu.commitStats0.numVecInsts                 0                       # Number of vector instructions (Count)
system.cpu.commitStats0.committedInstType::No_OpClass          651      0.00%      0.00% # Class of committed instruction. (Count)
system.cpu.commitStats0.committedInstType::IntAlu   1066804284     69.13%     69.13% # Class of committed instruction. (Count)
system.cpu.commitStats0.committedInstType::IntMult      6983311      0.45%     69.58% # Class of committed instruction. (Count)
system.cpu.commitStats0.committedInstType::IntDiv       342125      0.02%     69.60% # Class of committed instruction. (Count)
system.cpu.commitStats0.committedInstType::FloatAdd          336      0.00%     69.60% # Class of committed instruction. (Count)
system.cpu.commitStats0.committedInstType::FloatCmp            0      0.00%     69.60% # Class of committed instruction. (Count)
system.cpu.commitStats0.committedInstType::FloatCvt            0      0.00%     69.60% # Class of committed instruction. (Count)
system.cpu.commitStats0.committedInstType::FloatMult            0      0.00%     69.60% # Class of committed instruction. (Count)
system.cpu.commitStats0.committedInstType::FloatMultAcc            0      0.00%     69.60% # Class of committed instruction. (Count)
system.cpu.commitStats0.committedInstType::FloatDiv            0      0.00%     69.60% # Class of committed instruction. (Count)
system.cpu.commitStats0.committedInstType::FloatMisc            0      0.00%     69.60% # Class of committed instruction. (Count)
system.cpu.commitStats0.committedInstType::FloatSqrt            0      0.00%     69.60% # Class of committed instruction. (Count)
system.cpu.commitStats0.committedInstType::SimdAdd            0      0.00%     69.60% # Class of committed instruction. (Count)
system.cpu.commitStats0.committedInstType::SimdAddAcc            0      0.00%     69.60% # Class of committed instruction. (Count)
system.cpu.commitStats0.committedInstType::SimdAlu         1686      0.00%     69.60% # Class of committed instruction. (Count)
system.cpu.commitStats0.committedInstType::SimdCmp            6      0.00%     69.60% # Class of committed instruction. (Count)
system.cpu.commitStats0.committedInstType::SimdCvt         1936      0.00%     69.60% # Class of committed instruction. (Count)
system.cpu.commitStats0.committedInstType::SimdMisc         3356      0.00%     69.60% # Class of committed instruction. (Count)
system.cpu.commitStats0.committedInstType::SimdMult            0      0.00%     69.60% # Class of committed instruction. (Count)
system.cpu.commitStats0.committedInstType::SimdMultAcc            0      0.00%     69.60% # Class of committed instruction. (Count)
system.cpu.commitStats0.committedInstType::SimdMatMultAcc            0      0.00%     69.60% # Class of committed instruction. (Count)
system.cpu.commitStats0.committedInstType::SimdShift            0      0.00%     69.60% # Class of committed instruction. (Count)
system.cpu.commitStats0.committedInstType::SimdShiftAcc            0      0.00%     69.60% # Class of committed instruction. (Count)
system.cpu.commitStats0.committedInstType::SimdDiv            0      0.00%     69.60% # Class of committed instruction. (Count)
system.cpu.commitStats0.committedInstType::SimdSqrt            0      0.00%     69.60% # Class of committed instruction. (Count)
system.cpu.commitStats0.committedInstType::SimdFloatAdd            0      0.00%     69.60% # Class of committed instruction. (Count)
system.cpu.commitStats0.committedInstType::SimdFloatAlu            0      0.00%     69.60% # Class of committed instruction. (Count)
system.cpu.commitStats0.committedInstType::SimdFloatCmp            0      0.00%     69.60% # Class of committed instruction. (Count)
system.cpu.commitStats0.committedInstType::SimdFloatCvt            0      0.00%     69.60% # Class of committed instruction. (Count)
system.cpu.commitStats0.committedInstType::SimdFloatDiv            0      0.00%     69.60% # Class of committed instruction. (Count)
system.cpu.commitStats0.committedInstType::SimdFloatMisc            0      0.00%     69.60% # Class of committed instruction. (Count)
system.cpu.commitStats0.committedInstType::SimdFloatMult            0      0.00%     69.60% # Class of committed instruction. (Count)
system.cpu.commitStats0.committedInstType::SimdFloatMultAcc            0      0.00%     69.60% # Class of committed instruction. (Count)
system.cpu.commitStats0.committedInstType::SimdFloatMatMultAcc            0      0.00%     69.60% # Class of committed instruction. (Count)
system.cpu.commitStats0.committedInstType::SimdFloatSqrt            0      0.00%     69.60% # Class of committed instruction. (Count)
system.cpu.commitStats0.committedInstType::SimdReduceAdd            0      0.00%     69.60% # Class of committed instruction. (Count)
system.cpu.commitStats0.committedInstType::SimdReduceAlu            0      0.00%     69.60% # Class of committed instruction. (Count)
system.cpu.commitStats0.committedInstType::SimdReduceCmp            0      0.00%     69.60% # Class of committed instruction. (Count)
system.cpu.commitStats0.committedInstType::SimdFloatReduceAdd            0      0.00%     69.60% # Class of committed instruction. (Count)
system.cpu.commitStats0.committedInstType::SimdFloatReduceCmp            0      0.00%     69.60% # Class of committed instruction. (Count)
system.cpu.commitStats0.committedInstType::SimdAes            0      0.00%     69.60% # Class of committed instruction. (Count)
system.cpu.commitStats0.committedInstType::SimdAesMix            0      0.00%     69.60% # Class of committed instruction. (Count)
system.cpu.commitStats0.committedInstType::SimdSha1Hash            0      0.00%     69.60% # Class of committed instruction. (Count)
system.cpu.commitStats0.committedInstType::SimdSha1Hash2            0      0.00%     69.60% # Class of committed instruction. (Count)
system.cpu.commitStats0.committedInstType::SimdSha256Hash            0      0.00%     69.60% # Class of committed instruction. (Count)
system.cpu.commitStats0.committedInstType::SimdSha256Hash2            0      0.00%     69.60% # Class of committed instruction. (Count)
system.cpu.commitStats0.committedInstType::SimdShaSigma2            0      0.00%     69.60% # Class of committed instruction. (Count)
system.cpu.commitStats0.committedInstType::SimdShaSigma3            0      0.00%     69.60% # Class of committed instruction. (Count)
system.cpu.commitStats0.committedInstType::SimdPredAlu            0      0.00%     69.60% # Class of committed instruction. (Count)
system.cpu.commitStats0.committedInstType::Matrix            0      0.00%     69.60% # Class of committed instruction. (Count)
system.cpu.commitStats0.committedInstType::MatrixMov            0      0.00%     69.60% # Class of committed instruction. (Count)
system.cpu.commitStats0.committedInstType::MatrixOP            0      0.00%     69.60% # Class of committed instruction. (Count)
system.cpu.commitStats0.committedInstType::MemRead    300174567     19.45%     89.05% # Class of committed instruction. (Count)
system.cpu.commitStats0.committedInstType::MemWrite    168904864     10.94%    100.00% # Class of committed instruction. (Count)
system.cpu.commitStats0.committedInstType::FloatMemRead          998      0.00%    100.00% # Class of committed instruction. (Count)
system.cpu.commitStats0.committedInstType::FloatMemWrite          160      0.00%    100.00% # Class of committed instruction. (Count)
system.cpu.commitStats0.committedInstType::IprAccess            0      0.00%    100.00% # Class of committed instruction. (Count)
system.cpu.commitStats0.committedInstType::InstPrefetch            0      0.00%    100.00% # Class of committed instruction. (Count)
system.cpu.commitStats0.committedInstType::VectorUnitStrideLoad            0      0.00%    100.00% # Class of committed instruction. (Count)
system.cpu.commitStats0.committedInstType::VectorUnitStrideStore            0      0.00%    100.00% # Class of committed instruction. (Count)
system.cpu.commitStats0.committedInstType::VectorUnitStrideMaskLoad            0      0.00%    100.00% # Class of committed instruction. (Count)
system.cpu.commitStats0.committedInstType::VectorUnitStrideMaskStore            0      0.00%    100.00% # Class of committed instruction. (Count)
system.cpu.commitStats0.committedInstType::VectorStridedLoad            0      0.00%    100.00% # Class of committed instruction. (Count)
system.cpu.commitStats0.committedInstType::VectorStridedStore            0      0.00%    100.00% # Class of committed instruction. (Count)
system.cpu.commitStats0.committedInstType::VectorIndexedLoad            0      0.00%    100.00% # Class of committed instruction. (Count)
system.cpu.commitStats0.committedInstType::VectorIndexedStore            0      0.00%    100.00% # Class of committed instruction. (Count)
system.cpu.commitStats0.committedInstType::VectorUnitStrideFaultOnlyFirstLoad            0      0.00%    100.00% # Class of committed instruction. (Count)
system.cpu.commitStats0.committedInstType::VectorWholeRegisterLoad            0      0.00%    100.00% # Class of committed instruction. (Count)
system.cpu.commitStats0.committedInstType::VectorWholeRegisterStore            0      0.00%    100.00% # Class of committed instruction. (Count)
system.cpu.commitStats0.committedInstType::VectorIntegerArith            0      0.00%    100.00% # Class of committed instruction. (Count)
system.cpu.commitStats0.committedInstType::VectorFloatArith            0      0.00%    100.00% # Class of committed instruction. (Count)
system.cpu.commitStats0.committedInstType::VectorFloatConvert            0      0.00%    100.00% # Class of committed instruction. (Count)
system.cpu.commitStats0.committedInstType::VectorIntegerReduce            0      0.00%    100.00% # Class of committed instruction. (Count)
system.cpu.commitStats0.committedInstType::VectorFloatReduce            0      0.00%    100.00% # Class of committed instruction. (Count)
system.cpu.commitStats0.committedInstType::VectorMisc            0      0.00%    100.00% # Class of committed instruction. (Count)
system.cpu.commitStats0.committedInstType::VectorIntegerExtension            0      0.00%    100.00% # Class of committed instruction. (Count)
system.cpu.commitStats0.committedInstType::VectorConfig            0      0.00%    100.00% # Class of committed instruction. (Count)
system.cpu.commitStats0.committedInstType::total   1543218280                       # Class of committed instruction. (Count)
system.cpu.commitStats0.committedControl::IsControl    122185320                       # Class of control type instructions committed (Count)
system.cpu.commitStats0.committedControl::IsDirectControl    121449581                       # Class of control type instructions committed (Count)
system.cpu.commitStats0.committedControl::IsIndirectControl       735739                       # Class of control type instructions committed (Count)
system.cpu.commitStats0.committedControl::IsCondControl    113925484                       # Class of control type instructions committed (Count)
system.cpu.commitStats0.committedControl::IsUncondControl      8259836                       # Class of control type instructions committed (Count)
system.cpu.commitStats0.committedControl::IsCall       734700                       # Class of control type instructions committed (Count)
system.cpu.commitStats0.committedControl::IsReturn       734695                       # Class of control type instructions committed (Count)
system.cpu.dcache.demandHits::cpu.data      281610427                       # number of demand (read+write) hits (Count)
system.cpu.dcache.demandHits::total         281610427                       # number of demand (read+write) hits (Count)
system.cpu.dcache.overallHits::cpu.data     281610427                       # number of overall hits (Count)
system.cpu.dcache.overallHits::total        281610427                       # number of overall hits (Count)
system.cpu.dcache.demandMisses::cpu.data      7869204                       # number of demand (read+write) misses (Count)
system.cpu.dcache.demandMisses::total         7869204                       # number of demand (read+write) misses (Count)
system.cpu.dcache.overallMisses::cpu.data      7869204                       # number of overall misses (Count)
system.cpu.dcache.overallMisses::total        7869204                       # number of overall misses (Count)
system.cpu.dcache.demandMissLatency::cpu.data 699526859000                       # number of demand (read+write) miss ticks (Tick)
system.cpu.dcache.demandMissLatency::total 699526859000                       # number of demand (read+write) miss ticks (Tick)
system.cpu.dcache.overallMissLatency::cpu.data 699526859000                       # number of overall miss ticks (Tick)
system.cpu.dcache.overallMissLatency::total 699526859000                       # number of overall miss ticks (Tick)
system.cpu.dcache.demandAccesses::cpu.data    289479631                       # number of demand (read+write) accesses (Count)
system.cpu.dcache.demandAccesses::total     289479631                       # number of demand (read+write) accesses (Count)
system.cpu.dcache.overallAccesses::cpu.data    289479631                       # number of overall (read+write) accesses (Count)
system.cpu.dcache.overallAccesses::total    289479631                       # number of overall (read+write) accesses (Count)
system.cpu.dcache.demandMissRate::cpu.data     0.027184                       # miss rate for demand accesses (Ratio)
system.cpu.dcache.demandMissRate::total      0.027184                       # miss rate for demand accesses (Ratio)
system.cpu.dcache.overallMissRate::cpu.data     0.027184                       # miss rate for overall accesses (Ratio)
system.cpu.dcache.overallMissRate::total     0.027184                       # miss rate for overall accesses (Ratio)
system.cpu.dcache.demandAvgMissLatency::cpu.data 88894.233648                       # average overall miss latency in ticks ((Tick/Count))
system.cpu.dcache.demandAvgMissLatency::total 88894.233648                       # average overall miss latency in ticks ((Tick/Count))
system.cpu.dcache.overallAvgMissLatency::cpu.data 88894.233648                       # average overall miss latency ((Tick/Count))
system.cpu.dcache.overallAvgMissLatency::total 88894.233648                       # average overall miss latency ((Tick/Count))
system.cpu.dcache.blockedCycles::no_mshrs          101                       # number of cycles access was blocked (Cycle)
system.cpu.dcache.blockedCycles::no_targets            0                       # number of cycles access was blocked (Cycle)
system.cpu.dcache.blockedCauses::no_mshrs            4                       # number of times access was blocked (Count)
system.cpu.dcache.blockedCauses::no_targets            0                       # number of times access was blocked (Count)
system.cpu.dcache.avgBlocked::no_mshrs      25.250000                       # average number of cycles each access was blocked ((Cycle/Count))
system.cpu.dcache.avgBlocked::no_targets          nan                       # average number of cycles each access was blocked ((Cycle/Count))
system.cpu.dcache.writebacks::writebacks        74567                       # number of writebacks (Count)
system.cpu.dcache.writebacks::total             74567                       # number of writebacks (Count)
system.cpu.dcache.demandMshrHits::cpu.data       800755                       # number of demand (read+write) MSHR hits (Count)
system.cpu.dcache.demandMshrHits::total        800755                       # number of demand (read+write) MSHR hits (Count)
system.cpu.dcache.overallMshrHits::cpu.data       800755                       # number of overall MSHR hits (Count)
system.cpu.dcache.overallMshrHits::total       800755                       # number of overall MSHR hits (Count)
system.cpu.dcache.demandMshrMisses::cpu.data      7068449                       # number of demand (read+write) MSHR misses (Count)
system.cpu.dcache.demandMshrMisses::total      7068449                       # number of demand (read+write) MSHR misses (Count)
system.cpu.dcache.overallMshrMisses::cpu.data      7068449                       # number of overall MSHR misses (Count)
system.cpu.dcache.overallMshrMisses::total      7068449                       # number of overall MSHR misses (Count)
system.cpu.dcache.demandMshrMissLatency::cpu.data 661365658000                       # number of demand (read+write) MSHR miss ticks (Tick)
system.cpu.dcache.demandMshrMissLatency::total 661365658000                       # number of demand (read+write) MSHR miss ticks (Tick)
system.cpu.dcache.overallMshrMissLatency::cpu.data 661365658000                       # number of overall MSHR miss ticks (Tick)
system.cpu.dcache.overallMshrMissLatency::total 661365658000                       # number of overall MSHR miss ticks (Tick)
system.cpu.dcache.demandMshrMissRate::cpu.data     0.024418                       # mshr miss ratio for demand accesses (Ratio)
system.cpu.dcache.demandMshrMissRate::total     0.024418                       # mshr miss ratio for demand accesses (Ratio)
system.cpu.dcache.overallMshrMissRate::cpu.data     0.024418                       # mshr miss ratio for overall accesses (Ratio)
system.cpu.dcache.overallMshrMissRate::total     0.024418                       # mshr miss ratio for overall accesses (Ratio)
system.cpu.dcache.demandAvgMshrMissLatency::cpu.data 93565.881002                       # average overall mshr miss latency ((Tick/Count))
system.cpu.dcache.demandAvgMshrMissLatency::total 93565.881002                       # average overall mshr miss latency ((Tick/Count))
system.cpu.dcache.overallAvgMshrMissLatency::cpu.data 93565.881002                       # average overall mshr miss latency ((Tick/Count))
system.cpu.dcache.overallAvgMshrMissLatency::total 93565.881002                       # average overall mshr miss latency ((Tick/Count))
system.cpu.dcache.replacements                3258498                       # number of replacements (Count)
system.cpu.dcache.CleanInvalidReq.missLatency::cpu.data 205682619000                       # number of CleanInvalidReq miss ticks (Tick)
system.cpu.dcache.CleanInvalidReq.missLatency::total 205682619000                       # number of CleanInvalidReq miss ticks (Tick)
system.cpu.dcache.CleanInvalidReq.avgMissLatency::cpu.data          inf                       # average CleanInvalidReq miss latency ((Tick/Count))
system.cpu.dcache.CleanInvalidReq.avgMissLatency::total          inf                       # average CleanInvalidReq miss latency ((Tick/Count))
system.cpu.dcache.CleanInvalidReq.mshrMisses::cpu.data      6983262                       # number of CleanInvalidReq MSHR misses (Count)
system.cpu.dcache.CleanInvalidReq.mshrMisses::total      6983262                       # number of CleanInvalidReq MSHR misses (Count)
system.cpu.dcache.CleanInvalidReq.mshrMissLatency::cpu.data 363130239000                       # number of CleanInvalidReq MSHR miss ticks (Tick)
system.cpu.dcache.CleanInvalidReq.mshrMissLatency::total 363130239000                       # number of CleanInvalidReq MSHR miss ticks (Tick)
system.cpu.dcache.CleanInvalidReq.mshrMissRate::cpu.data          inf                       # mshr miss rate for CleanInvalidReq accesses (Ratio)
system.cpu.dcache.CleanInvalidReq.mshrMissRate::total          inf                       # mshr miss rate for CleanInvalidReq accesses (Ratio)
system.cpu.dcache.CleanInvalidReq.avgMshrMissLatency::cpu.data 52000.088068                       # average CleanInvalidReq mshr miss latency ((Tick/Count))
system.cpu.dcache.CleanInvalidReq.avgMshrMissLatency::total 52000.088068                       # average CleanInvalidReq mshr miss latency ((Tick/Count))
system.cpu.dcache.ReadReq.hits::cpu.data    119690847                       # number of ReadReq hits (Count)
system.cpu.dcache.ReadReq.hits::total       119690847                       # number of ReadReq hits (Count)
system.cpu.dcache.ReadReq.misses::cpu.data      7866979                       # number of ReadReq misses (Count)
system.cpu.dcache.ReadReq.misses::total       7866979                       # number of ReadReq misses (Count)
system.cpu.dcache.ReadReq.missLatency::cpu.data 699307186000                       # number of ReadReq miss ticks (Tick)
system.cpu.dcache.ReadReq.missLatency::total 699307186000                       # number of ReadReq miss ticks (Tick)
system.cpu.dcache.ReadReq.accesses::cpu.data    127557826                       # number of ReadReq accesses(hits+misses) (Count)
system.cpu.dcache.ReadReq.accesses::total    127557826                       # number of ReadReq accesses(hits+misses) (Count)
system.cpu.dcache.ReadReq.missRate::cpu.data     0.061674                       # miss rate for ReadReq accesses (Ratio)
system.cpu.dcache.ReadReq.missRate::total     0.061674                       # miss rate for ReadReq accesses (Ratio)
system.cpu.dcache.ReadReq.avgMissLatency::cpu.data 88891.451979                       # average ReadReq miss latency ((Tick/Count))
system.cpu.dcache.ReadReq.avgMissLatency::total 88891.451979                       # average ReadReq miss latency ((Tick/Count))
system.cpu.dcache.ReadReq.mshrHits::cpu.data       800752                       # number of ReadReq MSHR hits (Count)
system.cpu.dcache.ReadReq.mshrHits::total       800752                       # number of ReadReq MSHR hits (Count)
system.cpu.dcache.ReadReq.mshrMisses::cpu.data      7066227                       # number of ReadReq MSHR misses (Count)
system.cpu.dcache.ReadReq.mshrMisses::total      7066227                       # number of ReadReq MSHR misses (Count)
system.cpu.dcache.ReadReq.mshrMissLatency::cpu.data 661150728000                       # number of ReadReq MSHR miss ticks (Tick)
system.cpu.dcache.ReadReq.mshrMissLatency::total 661150728000                       # number of ReadReq MSHR miss ticks (Tick)
system.cpu.dcache.ReadReq.mshrMissRate::cpu.data     0.055396                       # mshr miss rate for ReadReq accesses (Ratio)
system.cpu.dcache.ReadReq.mshrMissRate::total     0.055396                       # mshr miss rate for ReadReq accesses (Ratio)
system.cpu.dcache.ReadReq.avgMshrMissLatency::cpu.data 93564.886608                       # average ReadReq mshr miss latency ((Tick/Count))
system.cpu.dcache.ReadReq.avgMshrMissLatency::total 93564.886608                       # average ReadReq mshr miss latency ((Tick/Count))
system.cpu.dcache.WriteReq.hits::cpu.data    161919580                       # number of WriteReq hits (Count)
system.cpu.dcache.WriteReq.hits::total      161919580                       # number of WriteReq hits (Count)
system.cpu.dcache.WriteReq.misses::cpu.data         2225                       # number of WriteReq misses (Count)
system.cpu.dcache.WriteReq.misses::total         2225                       # number of WriteReq misses (Count)
system.cpu.dcache.WriteReq.missLatency::cpu.data    219673000                       # number of WriteReq miss ticks (Tick)
system.cpu.dcache.WriteReq.missLatency::total    219673000                       # number of WriteReq miss ticks (Tick)
system.cpu.dcache.WriteReq.accesses::cpu.data    161921805                       # number of WriteReq accesses(hits+misses) (Count)
system.cpu.dcache.WriteReq.accesses::total    161921805                       # number of WriteReq accesses(hits+misses) (Count)
system.cpu.dcache.WriteReq.missRate::cpu.data     0.000014                       # miss rate for WriteReq accesses (Ratio)
system.cpu.dcache.WriteReq.missRate::total     0.000014                       # miss rate for WriteReq accesses (Ratio)
system.cpu.dcache.WriteReq.avgMissLatency::cpu.data 98729.438202                       # average WriteReq miss latency ((Tick/Count))
system.cpu.dcache.WriteReq.avgMissLatency::total 98729.438202                       # average WriteReq miss latency ((Tick/Count))
system.cpu.dcache.WriteReq.mshrHits::cpu.data            3                       # number of WriteReq MSHR hits (Count)
system.cpu.dcache.WriteReq.mshrHits::total            3                       # number of WriteReq MSHR hits (Count)
system.cpu.dcache.WriteReq.mshrMisses::cpu.data         2222                       # number of WriteReq MSHR misses (Count)
system.cpu.dcache.WriteReq.mshrMisses::total         2222                       # number of WriteReq MSHR misses (Count)
system.cpu.dcache.WriteReq.mshrMissLatency::cpu.data    214930000                       # number of WriteReq MSHR miss ticks (Tick)
system.cpu.dcache.WriteReq.mshrMissLatency::total    214930000                       # number of WriteReq MSHR miss ticks (Tick)
system.cpu.dcache.WriteReq.mshrMissRate::cpu.data     0.000014                       # mshr miss rate for WriteReq accesses (Ratio)
system.cpu.dcache.WriteReq.mshrMissRate::total     0.000014                       # mshr miss rate for WriteReq accesses (Ratio)
system.cpu.dcache.WriteReq.avgMshrMissLatency::cpu.data 96728.172817                       # average WriteReq mshr miss latency ((Tick/Count))
system.cpu.dcache.WriteReq.avgMshrMissLatency::total 96728.172817                       # average WriteReq mshr miss latency ((Tick/Count))
system.cpu.dcache.power_state.pwrStateResidencyTicks::UNDEFINED 2187338379000                       # Cumulative time (in ticks) in various power states (Tick)
system.cpu.dcache.tags.tagsInUse           966.454688                       # Average ticks per tags in use ((Tick/Count))
system.cpu.dcache.tags.totalRefs            292487801                       # Total number of references to valid blocks. (Count)
system.cpu.dcache.tags.sampledRefs            7068448                       # Sample count of references to valid blocks. (Count)
system.cpu.dcache.tags.avgRefs              41.379352                       # Average number of references to valid blocks. ((Count/Count))
system.cpu.dcache.tags.warmupTick              222000                       # The tick when the warmup percentage was hit. (Tick)
system.cpu.dcache.tags.occupancies::cpu.data   966.454688                       # Average occupied blocks per tick, per requestor ((Count/Tick))
[...]
system.mem_ctrl.dram.numReads::cpu.inst           572                       # Number of read requests responded to by this memory (Count)
system.mem_ctrl.dram.numReads::cpu.data       6985546                       # Number of read requests responded to by this memory (Count)
system.mem_ctrl.dram.numReads::total          6986118                       # Number of read requests responded to by this memory (Count)
system.mem_ctrl.dram.numWrites::writebacks          257                       # Number of write requests responded to by this memory (Count)
system.mem_ctrl.dram.numWrites::total             257                       # Number of write requests responded to by this memory (Count)
system.mem_ctrl.dram.bwRead::cpu.inst           16736                       # Total read bandwidth from this memory ((Byte/Second))
system.mem_ctrl.dram.bwRead::cpu.data       204392219                       # Total read bandwidth from this memory ((Byte/Second))
system.mem_ctrl.dram.bwRead::total          204408955                       # Total read bandwidth from this memory ((Byte/Second))
system.mem_ctrl.dram.bwInstRead::cpu.inst        16736                       # Instruction read bandwidth from this memory ((Byte/Second))
system.mem_ctrl.dram.bwInstRead::total          16736                       # Instruction read bandwidth from this memory ((Byte/Second))
system.mem_ctrl.dram.bwWrite::writebacks         7520                       # Write bandwidth from this memory ((Byte/Second))
system.mem_ctrl.dram.bwWrite::total              7520                       # Write bandwidth from this memory ((Byte/Second))
system.mem_ctrl.dram.bwTotal::writebacks         7520                       # Total bandwidth to/from this memory ((Byte/Second))
system.mem_ctrl.dram.bwTotal::cpu.inst          16736                       # Total bandwidth to/from this memory ((Byte/Second))
system.mem_ctrl.dram.bwTotal::cpu.data      204392219                       # Total bandwidth to/from this memory ((Byte/Second))
system.mem_ctrl.dram.bwTotal::total         204416475                       # Total bandwidth to/from this memory ((Byte/Second))
system.mem_ctrl.dram.readBursts               5716434                       # Number of DRAM read bursts (Count)
system.mem_ctrl.dram.writeBursts                  234                       # Number of DRAM write bursts (Count)
system.mem_ctrl.dram.perBankRdBursts::0        390893                       # Per bank write bursts (Count)
system.mem_ctrl.dram.perBankRdBursts::1        390825                       # Per bank write bursts (Count)
system.mem_ctrl.dram.perBankRdBursts::2        390861                       # Per bank write bursts (Count)
system.mem_ctrl.dram.perBankRdBursts::3        390824                       # Per bank write bursts (Count)
system.mem_ctrl.dram.perBankRdBursts::4        390800                       # Per bank write bursts (Count)
system.mem_ctrl.dram.perBankRdBursts::5        390809                       # Per bank write bursts (Count)
system.mem_ctrl.dram.perBankRdBursts::6         49061                       # Per bank write bursts (Count)
system.mem_ctrl.dram.perBankRdBursts::7        195517                       # Per bank write bursts (Count)
system.mem_ctrl.dram.perBankRdBursts::8        390851                       # Per bank write bursts (Count)
system.mem_ctrl.dram.perBankRdBursts::9        390850                       # Per bank write bursts (Count)
system.mem_ctrl.dram.perBankRdBursts::10       390900                       # Per bank write bursts (Count)
system.mem_ctrl.dram.perBankRdBursts::11       390882                       # Per bank write bursts (Count)
system.mem_ctrl.dram.perBankRdBursts::12       390825                       # Per bank write bursts (Count)
system.mem_ctrl.dram.perBankRdBursts::13       390850                       # Per bank write bursts (Count)
system.mem_ctrl.dram.perBankRdBursts::14       390834                       # Per bank write bursts (Count)
system.mem_ctrl.dram.perBankRdBursts::15       390852                       # Per bank write bursts (Count)
system.mem_ctrl.dram.perBankWrBursts::0            16                       # Per bank write bursts (Count)
system.mem_ctrl.dram.perBankWrBursts::1            16                       # Per bank write bursts (Count)
system.mem_ctrl.dram.perBankWrBursts::2            16                       # Per bank write bursts (Count)
system.mem_ctrl.dram.perBankWrBursts::3            16                       # Per bank write bursts (Count)
system.mem_ctrl.dram.perBankWrBursts::4            16                       # Per bank write bursts (Count)
system.mem_ctrl.dram.perBankWrBursts::5            16                       # Per bank write bursts (Count)
system.mem_ctrl.dram.perBankWrBursts::6             2                       # Per bank write bursts (Count)
system.mem_ctrl.dram.perBankWrBursts::7             8                       # Per bank write bursts (Count)
system.mem_ctrl.dram.perBankWrBursts::8            16                       # Per bank write bursts (Count)
system.mem_ctrl.dram.perBankWrBursts::9            16                       # Per bank write bursts (Count)
system.mem_ctrl.dram.perBankWrBursts::10           16                       # Per bank write bursts (Count)
system.mem_ctrl.dram.perBankWrBursts::11           16                       # Per bank write bursts (Count)
system.mem_ctrl.dram.perBankWrBursts::12           16                       # Per bank write bursts (Count)
system.mem_ctrl.dram.perBankWrBursts::13           16                       # Per bank write bursts (Count)
system.mem_ctrl.dram.perBankWrBursts::14           16                       # Per bank write bursts (Count)
system.mem_ctrl.dram.perBankWrBursts::15           16                       # Per bank write bursts (Count)
system.mem_ctrl.dram.totQLat              45994023250                       # Total ticks spent queuing (Tick)
system.mem_ctrl.dram.totBusLat            28582170000                       # Total ticks spent in databus transfers (Tick)
system.mem_ctrl.dram.totMemAccLat        153177160750                       # Total ticks spent from burst creation until serviced by the DRAM (Tick)
system.mem_ctrl.dram.avgQLat                  8045.93                       # Average queueing delay per DRAM burst ((Tick/Count))
system.mem_ctrl.dram.avgBusLat                5000.00                       # Average bus latency per DRAM burst ((Tick/Count))
system.mem_ctrl.dram.avgMemAccLat            26795.93                       # Average memory access latency per DRAM burst ((Tick/Count))
system.mem_ctrl.dram.readRowHits              3438916                       # Number of row buffer hits during reads (Count)
system.mem_ctrl.dram.writeRowHits                 215                       # Number of row buffer hits during writes (Count)
system.mem_ctrl.dram.readRowHitRate             60.16                       # Row buffer hit rate for reads (Ratio)
system.mem_ctrl.dram.writeRowHitRate            91.88                       # Row buffer hit rate for writes (Ratio)
system.mem_ctrl.dram.bytesPerActivate::samples      2277532                       # Bytes accessed per row activation (Byte)
system.mem_ctrl.dram.bytesPerActivate::mean   160.641312                       # Bytes accessed per row activation (Byte)
system.mem_ctrl.dram.bytesPerActivate::gmean   146.440543                       # Bytes accessed per row activation (Byte)
system.mem_ctrl.dram.bytesPerActivate::stdev    65.717360                       # Bytes accessed per row activation (Byte)
system.mem_ctrl.dram.bytesPerActivate::0-127       338028     14.84%     14.84% # Bytes accessed per row activation (Byte)
system.mem_ctrl.dram.bytesPerActivate::128-255      1373003     60.28%     75.13% # Bytes accessed per row activation (Byte)
system.mem_ctrl.dram.bytesPerActivate::256-383       566266     24.86%     99.99% # Bytes accessed per row activation (Byte)
system.mem_ctrl.dram.bytesPerActivate::384-511           96      0.00%     99.99% # Bytes accessed per row activation (Byte)
system.mem_ctrl.dram.bytesPerActivate::512-639            7      0.00%     99.99% # Bytes accessed per row activation (Byte)
system.mem_ctrl.dram.bytesPerActivate::640-767           11      0.00%     99.99% # Bytes accessed per row activation (Byte)
system.mem_ctrl.dram.bytesPerActivate::768-895            5      0.00%     99.99% # Bytes accessed per row activation (Byte)
system.mem_ctrl.dram.bytesPerActivate::896-1023            7      0.00%    100.00% # Bytes accessed per row activation (Byte)
system.mem_ctrl.dram.bytesPerActivate::1024-1151          109      0.00%    100.00% # Bytes accessed per row activation (Byte)
system.mem_ctrl.dram.bytesPerActivate::total      2277532                       # Bytes accessed per row activation (Byte)
system.mem_ctrl.dram.bytesRead              365851776                       # Total bytes read (Byte)
system.mem_ctrl.dram.bytesWritten               14976                       # Total bytes written (Byte)
system.mem_ctrl.dram.avgRdBW               167.258884                       # Average DRAM read bandwidth in MiBytes/s ((Byte/Second))
system.mem_ctrl.dram.avgWrBW                 0.006847                       # Average DRAM write bandwidth in MiBytes/s ((Byte/Second))
system.mem_ctrl.dram.peakBW                  12800.00                       # Theoretical peak bandwidth in MiByte/s ((Byte/Second))
system.mem_ctrl.dram.busUtil                     1.31                       # Data bus utilization in percentage (Ratio)
system.mem_ctrl.dram.busUtilRead                 1.31                       # Data bus utilization in percentage for reads (Ratio)
system.mem_ctrl.dram.busUtilWrite                0.00                       # Data bus utilization in percentage for writes (Ratio)
system.mem_ctrl.dram.pageHitRate                60.16                       # Row buffer hit rate, read and write combined (Ratio)
system.mem_ctrl.dram.power_state.pwrStateResidencyTicks::UNDEFINED 2187338379000                       # Cumulative time (in ticks) in various power states (Tick)
system.mem_ctrl.dram.rank0.actEnergy       7622249880                       # Energy for activate commands per rank (pJ) (Joule)
system.mem_ctrl.dram.rank0.preEnergy       4051318095                       # Energy for precharge commands per rank (pJ) (Joule)
system.mem_ctrl.dram.rank0.readEnergy     18489672600                       # Energy for read commands per rank (pJ) (Joule)
system.mem_ctrl.dram.rank0.writeEnergy         553320                       # Energy for write commands per rank (pJ) (Joule)
system.mem_ctrl.dram.rank0.refreshEnergy 172666512720.000031                       # Energy for refresh commands per rank (pJ) (Joule)
system.mem_ctrl.dram.rank0.actBackEnergy 555175507260                       # Energy for active background per rank (pJ) (Joule)
system.mem_ctrl.dram.rank0.preBackEnergy 372421721280                       # Energy for precharge background per rank (pJ) (Joule)
system.mem_ctrl.dram.rank0.actPowerDownEnergy            0                       # Energy for active power-down per rank (pJ) (Joule)
system.mem_ctrl.dram.rank0.prePowerDownEnergy            0                       # Energy for precharge power-down per rank (pJ) (Joule)
system.mem_ctrl.dram.rank0.selfRefreshEnergy            0                       # Energy for self refresh per rank (pJ) (Joule)
system.mem_ctrl.dram.rank0.totalEnergy   1130427535155                       # Total energy per rank (pJ) (Joule)
system.mem_ctrl.dram.rank0.averagePower    516.805057                       # Core power per rank (mW) (Watt)
system.mem_ctrl.dram.rank0.totalIdleTime            0                       # Total Idle time Per DRAM Rank (Tick)
system.mem_ctrl.dram.rank0.pwrStateTime::IDLE 963629097500                       # Time in different power states (Tick)
system.mem_ctrl.dram.rank0.pwrStateTime::REF  73039980000                       # Time in different power states (Tick)
system.mem_ctrl.dram.rank0.pwrStateTime::SREF            0                       # Time in different power states (Tick)
system.mem_ctrl.dram.rank0.pwrStateTime::PRE_PDN            0                       # Time in different power states (Tick)
system.mem_ctrl.dram.rank0.pwrStateTime::ACT 1150669301500                       # Time in different power states (Tick)
system.mem_ctrl.dram.rank0.pwrStateTime::ACT_PDN            0                       # Time in different power states (Tick)
system.mem_ctrl.dram.rank1.actEnergy       8639364300                       # Energy for activate commands per rank (pJ) (Joule)
system.mem_ctrl.dram.rank1.preEnergy       4591915845                       # Energy for precharge commands per rank (pJ) (Joule)
system.mem_ctrl.dram.rank1.readEnergy     22325666160                       # Energy for read commands per rank (pJ) (Joule)
system.mem_ctrl.dram.rank1.writeEnergy         668160                       # Energy for write commands per rank (pJ) (Joule)
system.mem_ctrl.dram.rank1.refreshEnergy 172666512720.000031                       # Energy for refresh commands per rank (pJ) (Joule)
system.mem_ctrl.dram.rank1.actBackEnergy 555805145790                       # Energy for active background per rank (pJ) (Joule)
system.mem_ctrl.dram.rank1.preBackEnergy 371891499360                       # Energy for precharge background per rank (pJ) (Joule)
system.mem_ctrl.dram.rank1.actPowerDownEnergy            0                       # Energy for active power-down per rank (pJ) (Joule)
system.mem_ctrl.dram.rank1.prePowerDownEnergy            0                       # Energy for precharge power-down per rank (pJ) (Joule)
system.mem_ctrl.dram.rank1.selfRefreshEnergy            0                       # Energy for self refresh per rank (pJ) (Joule)
system.mem_ctrl.dram.rank1.totalEnergy   1135920772335                       # Total energy per rank (pJ) (Joule)
system.mem_ctrl.dram.rank1.averagePower    519.316436                       # Core power per rank (mW) (Watt)
system.mem_ctrl.dram.rank1.totalIdleTime            0                       # Total Idle time Per DRAM Rank (Tick)
system.mem_ctrl.dram.rank1.pwrStateTime::IDLE 962162668250                       # Time in different power states (Tick)
system.mem_ctrl.dram.rank1.pwrStateTime::REF  73039980000                       # Time in different power states (Tick)
system.mem_ctrl.dram.rank1.pwrStateTime::SREF            0                       # Time in different power states (Tick)
system.mem_ctrl.dram.rank1.pwrStateTime::PRE_PDN            0                       # Time in different power states (Tick)
system.mem_ctrl.dram.rank1.pwrStateTime::ACT 1152135730750                       # Time in different power states (Tick)
system.mem_ctrl.dram.rank1.pwrStateTime::ACT_PDN            0                       # Time in different power states (Tick)
system.mem_ctrl.power_state.pwrStateResidencyTicks::UNDEFINED 2187338379000                       # Cumulative time (in ticks) in various power states (Tick)
system.membus.transDist::ReadResp             6983939                       # Transaction distribution (Count)
system.membus.transDist::WriteClean               257                       # Transaction distribution (Count)
system.membus.transDist::CleanEvict                 5                       # Transaction distribution (Count)
system.membus.transDist::ReadExReq               2178                       # Transaction distribution (Count)
system.membus.transDist::ReadExResp              2178                       # Transaction distribution (Count)
system.membus.transDist::ReadSharedReq        6983940                       # Transaction distribution (Count)
system.membus.transDist::CleanInvalidReq      6983262                       # Transaction distribution (Count)
system.membus.pktCount_system.l2cache.mem_side_port::system.mem_ctrl.port     20955759                       # Packet count per connected requestor and responder (Count)
system.membus.pktCount_system.l2cache.mem_side_port::total     20955759                       # Packet count per connected requestor and responder (Count)
system.membus.pktCount::total                20955759                       # Packet count per connected requestor and responder (Count)
system.membus.pktSize_system.l2cache.mem_side_port::system.mem_ctrl.port    447127936                       # Cumulative packet size per connected requestor and responder (Byte)
system.membus.pktSize_system.l2cache.mem_side_port::total    447127936                       # Cumulative packet size per connected requestor and responder (Byte)
system.membus.pktSize::total                447127936                       # Cumulative packet size per connected requestor and responder (Byte)
system.membus.snoops                                0                       # Total snoops (Count)
system.membus.snoopTraffic                          0                       # Total snoop traffic (Byte)
system.membus.snoopFanout::samples           13969380                       # Request fanout histogram (Count)
system.membus.snoopFanout::mean                     0                       # Request fanout histogram (Count)
system.membus.snoopFanout::stdev                    0                       # Request fanout histogram (Count)
system.membus.snoopFanout::underflows               0      0.00%      0.00% # Request fanout histogram (Count)
system.membus.snoopFanout::0                 13969380    100.00%    100.00% # Request fanout histogram (Count)
system.membus.snoopFanout::1                        0      0.00%    100.00% # Request fanout histogram (Count)
system.membus.snoopFanout::overflows                0      0.00%    100.00% # Request fanout histogram (Count)
system.membus.snoopFanout::min_value                0                       # Request fanout histogram (Count)
system.membus.snoopFanout::max_value                0                       # Request fanout histogram (Count)
system.membus.snoopFanout::total             13969380                       # Request fanout histogram (Count)
system.membus.power_state.pwrStateResidencyTicks::UNDEFINED 2187338379000                       # Cumulative time (in ticks) in various power states (Tick)
system.membus.reqLayer2.occupancy         13970670000                       # Layer occupancy (ticks) (Tick)
system.membus.reqLayer2.utilization               0.0                       # Layer utilization (Ratio)
system.membus.respLayer0.occupancy        36912303500                       # Layer occupancy (ticks) (Tick)
system.membus.respLayer0.utilization              0.0                       # Layer utilization (Ratio)
system.membus.snoop_filter.totRequests       13969385                       # Total number of requests made to the snoop filter. (Count)
system.membus.snoop_filter.hitSingleRequests      6983267                       # Number of requests hitting in the snoop filter with a single holder of the requested data. (Count)
system.membus.snoop_filter.hitMultiRequests            0                       # Number of requests hitting in the snoop filter with multiple (>1) holders of the requested data. (Count)
system.membus.snoop_filter.totSnoops                0                       # Total number of snoops made to the snoop filter. (Count)
system.membus.snoop_filter.hitSingleSnoops            0                       # Number of snoops hitting in the snoop filter with a single holder of the requested data. (Count)
system.membus.snoop_filter.hitMultiSnoops            0                       # Number of snoops hitting in the snoop filter with multiple (>1) holders of the requested data. (Count)
system.workload.inst.arm                            0                       # number of arm instructions executed (Count)
system.workload.inst.quiesce                        0                       # number of quiesce instructions executed (Count)

---------- End Simulation Statistics   ----------
